   Input file: min.phrq
  Output file: min.phrq.out
Database file: ../../database/som.dat

------------------
Reading data base.
------------------

	SOLUTION_MASTER_SPECIES
	SOLUTION_SPECIES
	SOLUTION_SPECIES
	PHASES
	PHASES
	SURFACE_MASTER_SPECIES
	SURFACE_SPECIES
	END
------------------------------------
Reading input data for simulation 1.
------------------------------------

	DATABASE ../../database/som.dat
	TITLE simulate soil pH titration with NaOH
	SOLUTION 1
	units mmol/kgw
	temperature 	 25.0
	pH 5.92
	water       0.048     #kg
	C(4)        1.0   # in equilibrium with CO2 in atmosphere, 400 pm
	Ca          2
	K           260
	Na          50
	Cl          1 charge
	Lactate     17
	Acetate     17
	Formate     17
	Propionate  17
	Oxalate      17
	Citrate      17
	Hydroquinone 17
	Valspice    17
	Eugenol     17
	Aguaiacyl   17
	Bguaiacyl   17
	Cguaiacyl   17
	USE SOLUTION 1
	REACTION 1
	HCl 0.0001
	  34 in 17 steps
	SAVE SOLUTION 1
	SELECTED_OUTPUT
	reset false
	file min_H.txt
	USER_PUNCH
	start
	heading pH
	10 PUNCH -la("H+")
	end
	END
-----
TITLE
-----

 simulate soil pH titration with NaOH

-------------------------------------------
Beginning of initial solution calculations.
-------------------------------------------

Initial solution 1.	

-----------------------------Solution composition------------------------------

	Elements           Molality       Moles

	Acetate           1.700e-02   8.160e-04
	Aguaiacyl         1.700e-02   8.160e-04
	Bguaiacyl         1.700e-02   8.160e-04
	C(4)              1.000e-03   4.800e-05
	Ca                2.000e-03   9.600e-05
	Cguaiacyl         1.700e-02   8.160e-04
	Citrate           1.700e-02   8.160e-04
	Cl                8.117e-02   3.896e-03  Charge balance
	Eugenol           1.700e-02   8.160e-04
	Formate           1.700e-02   8.160e-04
	Hydroquinone      1.700e-02   8.160e-04
	K                 2.600e-01   1.248e-02
	Lactate           1.700e-02   8.160e-04
	Na                5.000e-02   2.400e-03
	Oxalate           1.700e-02   8.160e-04
	Propionate        1.700e-02   8.160e-04
	Valspice          1.700e-02   8.160e-04

----------------------------Description of solution----------------------------

                                       pH  =   5.920    
                                       pe  =   4.000    
                        Activity of water  =   0.990
                           Ionic strength  =   3.525e-01
                       Mass of water (kg)  =   4.800e-02
                 Total alkalinity (eq/kg)  =   1.138e-01
                       Total CO2 (mol/kg)  =   1.000e-03
                         Temperature (°C)  =  25.00
                  Electrical balance (eq)  =  -4.198e-18
 Percent error, 100*(Cat-|An|)/(Cat+|An|)  =  -0.00
                               Iterations  =  11
                                  Total H  = 5.333080e+00
                                  Total O  = 2.664472e+00

----------------------------Distribution of species----------------------------

                                               Log       Log       Log    mole V
   Species          Molality    Activity  Molality  Activity     Gamma   cm³/mol

   H+              1.645e-06   1.202e-06    -5.784    -5.920    -0.136      0.00
   OH-             1.255e-08   8.292e-09    -7.901    -8.081    -0.180     (0)  
   H2O             5.551e+01   9.901e-01     1.744    -0.004     0.000     18.07
Acetate       1.700e-02
   Acetate-        1.474e-02   1.078e-02    -1.831    -1.968    -0.136     (0)  
   K(Acetate)      1.252e-03   1.252e-03    -2.902    -2.902     0.000     (0)  
   H(Acetate)      7.404e-04   7.404e-04    -3.131    -3.131     0.000     (0)  
   Na(Acetate)     2.504e-04   2.504e-04    -3.601    -3.601     0.000     (0)  
   Ca(Acetate)+    1.536e-05   7.647e-06    -4.814    -5.117    -0.303     (0)  
Aguaiacyl     1.700e-02
   H(Aguaiacyl)-   1.299e-02   9.494e-03    -1.886    -2.023    -0.136     (0)  
   Aguaiacyl-2     3.730e-03   1.065e-03    -2.428    -2.973    -0.544     (0)  
   H2(Aguaiacyl)   2.833e-04   3.072e-04    -3.548    -3.513     0.035     (0)  
Bguaiacyl     1.700e-02
   Bguaiacyl-2     1.010e-02   2.884e-03    -1.996    -2.540    -0.544     (0)  
   H(Bguaiacyl)-   6.856e-03   5.012e-03    -2.164    -2.300    -0.136     (0)  
   H2(Bguaiacyl)   4.516e-05   4.898e-05    -4.345    -4.310     0.035     (0)  
C(4)          1.000e-03
   H2CO3           6.548e-04   6.548e-04    -3.184    -3.184     0.000     (0)  
   HCO3-           3.401e-04   2.422e-04    -3.468    -3.616    -0.147     (0)  
   NaHCO3          4.789e-06   4.789e-06    -5.320    -5.320     0.000     (0)  
   CaHCO3+         2.915e-07   2.114e-07    -6.535    -6.675    -0.140     (0)  
   CO3-2           3.307e-08   9.443e-09    -7.481    -8.025    -0.544     (0)  
   NaCO3-          8.684e-09   6.183e-09    -8.061    -8.209    -0.147     (0)  
   CaCO3           7.016e-10   7.016e-10    -9.154    -9.154     0.000     (0)  
Ca            2.000e-03
   Ca(Citrate)-    1.754e-03   8.733e-04    -2.756    -3.059    -0.303     (0)  
   Ca+2            1.642e-04   4.688e-05    -3.785    -4.329    -0.544     (0)  
   Ca(Formate)+    3.128e-05   1.558e-05    -4.505    -4.808    -0.303     (0)  
   CaH(Citrate)    2.577e-05   2.577e-05    -4.589    -4.589     0.000     (0)  
   Ca(Acetate)+    1.536e-05   7.647e-06    -4.814    -5.117    -0.303     (0)  
   Ca(Propionate)+   9.315e-06   4.639e-06    -5.031    -5.334    -0.303     (0)  
   CaHCO3+         2.915e-07   2.114e-07    -6.535    -6.675    -0.140     (0)  
   CaH2(Citrate)+   6.180e-08   3.077e-08    -7.209    -7.512    -0.303     (0)  
   CaCO3           7.016e-10   7.016e-10    -9.154    -9.154     0.000     (0)  
   CaOH+           1.070e-11   7.756e-12   -10.971   -11.110    -0.140     (0)  
Cguaiacyl     1.700e-02
   H(Cguaiacyl)-   1.694e-02   1.238e-02    -1.771    -1.907    -0.136     (0)  
   Cguaiacyl-2     5.717e-05   1.633e-05    -4.243    -4.787    -0.544     (0)  
   H2(Cguaiacyl)   2.176e-06   2.360e-06    -5.662    -5.627     0.035     (0)  
Citrate       1.700e-02
   K(Citrate)-2    9.379e-03   5.767e-04    -2.028    -3.239    -1.211     (0)  
   Citrate-3       4.215e-03   2.513e-04    -2.375    -3.600    -1.225     (0)  
   Ca(Citrate)-    1.754e-03   8.733e-04    -2.756    -3.059    -0.303     (0)  
   Na(Citrate)-2   1.540e-03   9.469e-05    -2.812    -4.024    -1.211     (0)  
   NaH(Citrate)-   6.013e-05   2.994e-05    -4.221    -4.524    -0.303     (0)  
   CaH(Citrate)    2.577e-05   2.577e-05    -4.589    -4.589     0.000     (0)  
   Na2(Citrate)-   1.973e-05   9.827e-06    -4.705    -5.008    -0.303     (0)  
   H(Citrate)-2    6.628e-06   4.075e-07    -5.179    -6.390    -1.211     (0)  
   CaH2(Citrate)+   6.180e-08   3.077e-08    -7.209    -7.512    -0.303     (0)  
   H2(Citrate)-    4.197e-11   2.090e-11   -10.377   -10.680    -0.303     (0)  
   H3(Citrate)     1.097e-15   1.097e-15   -14.960   -14.960     0.000     (0)  
Cl            8.117e-02
   Cl-             8.117e-02   5.934e-02    -1.091    -1.227    -0.136     (0)  
Eugenol       1.700e-02
   H(Eugenol)      1.700e-02   1.844e-02    -1.770    -1.734     0.035     (0)  
   Eugenol-        1.485e-06   1.086e-06    -5.828    -5.964    -0.136     (0)  
Formate       1.700e-02
   Formate-        1.689e-02   1.234e-02    -1.772    -1.909    -0.136     (0)  
   H(Formate)      8.250e-05   8.250e-05    -4.084    -4.084     0.000     (0)  
   Ca(Formate)+    3.128e-05   1.558e-05    -4.505    -4.808    -0.303     (0)  
H(0)          1.887e-23
   H2              9.435e-24   1.023e-23   -23.025   -22.990     0.035     (0)  
Hydroquinone   1.700e-02
   H(Hydroquinone)-   1.699e-02   1.242e-02    -1.770    -1.906    -0.136     (0)  
   Hydroquinone-2   5.111e-06   1.460e-06    -5.291    -5.836    -0.544     (0)  
   H2(Hydroquinone)   4.886e-07   5.300e-07    -6.311    -6.276     0.035     (0)  
K             2.600e-01
   K+              2.494e-01   1.823e-01    -0.603    -0.739    -0.136     (0)  
   K(Citrate)-2    9.379e-03   5.767e-04    -2.028    -3.239    -1.211     (0)  
   K(Acetate)      1.252e-03   1.252e-03    -2.902    -2.902     0.000     (0)  
Lactate       1.700e-02
   Lactate-        1.689e-02   1.234e-02    -1.772    -1.909    -0.136     (0)  
   H(Lactate)      1.138e-04   1.234e-04    -3.944    -3.909     0.035     (0)  
Na            5.000e-02
   Na+             4.811e-02   3.517e-02    -1.318    -1.454    -0.136     (0)  
   Na(Citrate)-2   1.540e-03   9.469e-05    -2.812    -4.024    -1.211     (0)  
   Na(Acetate)     2.504e-04   2.504e-04    -3.601    -3.601     0.000     (0)  
   NaH(Citrate)-   6.013e-05   2.994e-05    -4.221    -4.524    -0.303     (0)  
   Na2(Citrate)-   1.973e-05   9.827e-06    -4.705    -5.008    -0.303     (0)  
   NaHCO3          4.789e-06   4.789e-06    -5.320    -5.320     0.000     (0)  
   NaCO3-          8.684e-09   6.183e-09    -8.061    -8.209    -0.147     (0)  
O(0)          0.000e+00
   O2              0.000e+00   0.000e+00   -46.359   -46.324     0.035     (0)  
Oxalate       1.700e-02
   Oxalate-2       1.700e-02   4.855e-03    -1.770    -2.314    -0.544     (0)  
   H(Oxalate)-     2.303e-07   1.683e-07    -6.638    -6.774    -0.136     (0)  
   H2(Oxalate)     1.625e-10   1.763e-10    -9.789    -9.754     0.035     (0)  
Propionate    1.700e-02
   Propionate-     1.594e-02   1.165e-02    -1.797    -1.934    -0.136     (0)  
   H(Propionate)   1.048e-03   1.048e-03    -2.980    -2.980     0.000     (0)  
   Ca(Propionate)+   9.315e-06   4.639e-06    -5.031    -5.334    -0.303     (0)  
Valspice      1.700e-02
   H(Valspice)     1.700e-02   1.844e-02    -1.770    -1.734     0.035     (0)  
   Valspice-       1.127e-06   8.235e-07    -5.948    -6.084    -0.136     (0)  

------------------------------Saturation indices-------------------------------

  Phase               SI** log IAP   log K(298 K,   1 atm)

  Aragonite        -4.05    -12.35   -8.30  CaCO3
  Calcite          -3.87    -12.35   -8.48  CaCO3
  CH4(g)          -58.17    -99.21  -41.05  CH4
  CO2(g)           -1.71    -19.86  -18.15  CO2
  Halite           -4.28     -2.68    1.60  NaCl
  Lime            -25.19      7.51   32.70  CaO
  Natron           -9.66    -10.98   -1.31  Na2CO3:10H2O
  O2(g)           -43.42     39.67   83.09  O2
  Portlandite     -15.30      7.50   22.80  Ca(OH)2
  Thermonatrite   -11.57    -10.94    0.64  Na2CO3:H2O

**For a gas, SI = log10(fugacity). Fugacity = pressure * phi / 1 atm.
  For ideal gases, phi = 1.

-----------------------------------------
Beginning of batch-reaction calculations.
-----------------------------------------

Reaction step 1.

Using solution 1.	
Using reaction 1.	

Reaction 1.	

	  2.000e+00 moles of the following reaction have been added:

	                 Relative
	Reactant            moles

	HCl                  0.00010

	                 Relative
	Element             moles
	Cl                   0.00010
	H                    0.00010

-----------------------------Solution composition------------------------------

	Elements           Molality       Moles

	Acetate           1.700e-02   8.160e-04
	Aguaiacyl         1.700e-02   8.160e-04
	Bguaiacyl         1.700e-02   8.160e-04
	C                 1.000e-03   4.800e-05
	Ca                2.000e-03   9.600e-05
	Cguaiacyl         1.700e-02   8.160e-04
	Citrate           1.700e-02   8.160e-04
	Cl                8.534e-02   4.096e-03
	Eugenol           1.700e-02   8.160e-04
	Formate           1.700e-02   8.160e-04
	Hydroquinone      1.700e-02   8.160e-04
	K                 2.600e-01   1.248e-02
	Lactate           1.700e-02   8.160e-04
	Na                5.000e-02   2.400e-03
	Oxalate           1.700e-02   8.160e-04
	Propionate        1.700e-02   8.160e-04
	Valspice          1.700e-02   8.160e-04

----------------------------Description of solution----------------------------

                                       pH  =   5.740      Charge balance
                                       pe  =  -0.459      Adjusted to redox equilibrium
                        Activity of water  =   0.990
                           Ionic strength  =   3.497e-01
                       Mass of water (kg)  =   4.800e-02
                 Total alkalinity (eq/kg)  =   1.097e-01
                       Total CO2 (mol/kg)  =   1.000e-03
                         Temperature (°C)  =  25.00
                  Electrical balance (eq)  =  -2.494e-12
 Percent error, 100*(Cat-|An|)/(Cat+|An|)  =  -0.00
                               Iterations  =   8
                                  Total H  = 5.333280e+00
                                  Total O  = 2.664472e+00

----------------------------Distribution of species----------------------------

                                               Log       Log       Log    mole V
   Species          Molality    Activity  Molality  Activity     Gamma   cm³/mol

   H+              2.488e-06   1.819e-06    -5.604    -5.740    -0.136      0.00
   OH-             8.287e-09   5.481e-09    -8.082    -8.261    -0.180     (0)  
   H2O             5.551e+01   9.900e-01     1.744    -0.004     0.000     18.07
Acetate       1.700e-02
   Acetate-        1.442e-02   1.054e-02    -1.841    -1.977    -0.136     (0)  
   K(Acetate)      1.226e-03   1.226e-03    -2.912    -2.912     0.000     (0)  
   H(Acetate)      1.096e-03   1.096e-03    -2.960    -2.960     0.000     (0)  
   Na(Acetate)     2.449e-04   2.449e-04    -3.611    -3.611     0.000     (0)  
   Ca(Acetate)+    1.485e-05   7.415e-06    -4.828    -5.130    -0.302     (0)  
Aguaiacyl     1.700e-02
   H(Aguaiacyl)-   1.390e-02   1.016e-02    -1.857    -1.993    -0.136     (0)  
   Aguaiacyl-2     2.639e-03   7.538e-04    -2.579    -3.123    -0.544     (0)  
   H2(Aguaiacyl)   4.591e-04   4.976e-04    -3.338    -3.303     0.035     (0)  
Bguaiacyl     1.700e-02
   H(Bguaiacyl)-   8.571e-03   6.267e-03    -2.067    -2.203    -0.136     (0)  
   Bguaiacyl-2     8.343e-03   2.384e-03    -2.079    -2.623    -0.544     (0)  
   H2(Bguaiacyl)   8.548e-05   9.265e-05    -4.068    -4.033     0.035     (0)  
C(4)          1.000e-03
   H2CO3           7.417e-04   7.417e-04    -3.130    -3.130     0.000     (0)  
   HCO3-           2.545e-04   1.813e-04    -3.594    -3.742    -0.147     (0)  
   NaHCO3          3.585e-06   3.585e-06    -5.446    -5.446     0.000     (0)  
   CaHCO3+         2.162e-07   1.569e-07    -6.665    -6.804    -0.139     (0)  
   CO3-2           1.636e-08   4.674e-09    -7.786    -8.330    -0.544     (0)  
   NaCO3-          4.294e-09   3.060e-09    -8.367    -8.514    -0.147     (0)  
   CaCO3           3.442e-10   3.442e-10    -9.463    -9.463     0.000     (0)  
Ca            2.000e-03
   Ca(Citrate)-    1.743e-03   8.706e-04    -2.759    -3.060    -0.302     (0)  
   Ca+2            1.627e-04   4.648e-05    -3.789    -4.333    -0.544     (0)  
   CaH(Citrate)    3.887e-05   3.887e-05    -4.410    -4.410     0.000     (0)  
   Ca(Formate)+    3.085e-05   1.540e-05    -4.511    -4.812    -0.302     (0)  
   Ca(Acetate)+    1.485e-05   7.415e-06    -4.828    -5.130    -0.302     (0)  
   Ca(Propionate)+   8.927e-06   4.458e-06    -5.049    -5.351    -0.302     (0)  
   CaHCO3+         2.162e-07   1.569e-07    -6.665    -6.804    -0.139     (0)  
   CaH2(Citrate)+   1.406e-07   7.021e-08    -6.852    -7.154    -0.302     (0)  
   CaCO3           3.442e-10   3.442e-10    -9.463    -9.463     0.000     (0)  
   CaOH+           7.004e-12   5.082e-12   -11.155   -11.294    -0.139     (0)  
Cguaiacyl     1.700e-02
   H(Cguaiacyl)-   1.696e-02   1.240e-02    -1.771    -1.907    -0.136     (0)  
   Cguaiacyl-2     3.782e-05   1.080e-05    -4.422    -4.966    -0.544     (0)  
   H2(Cguaiacyl)   3.298e-06   3.574e-06    -5.482    -5.447     0.035     (0)  
Citrate       1.700e-02
   K(Citrate)-2    9.331e-03   5.802e-04    -2.030    -3.236    -1.206     (0)  
   Citrate-3       4.234e-03   2.527e-04    -2.373    -3.597    -1.224     (0)  
   Ca(Citrate)-    1.743e-03   8.706e-04    -2.759    -3.060    -0.302     (0)  
   Na(Citrate)-2   1.531e-03   9.520e-05    -2.815    -4.021    -1.206     (0)  
   NaH(Citrate)-   9.120e-05   4.554e-05    -4.040    -4.342    -0.302     (0)  
   CaH(Citrate)    3.887e-05   3.887e-05    -4.410    -4.410     0.000     (0)  
   Na2(Citrate)-   1.978e-05   9.878e-06    -4.704    -5.005    -0.302     (0)  
   H(Citrate)-2    9.972e-06   6.200e-07    -5.001    -6.208    -1.206     (0)  
   CaH2(Citrate)+   1.406e-07   7.021e-08    -6.852    -7.154    -0.302     (0)  
   H2(Citrate)-    9.633e-11   4.810e-11   -10.016   -10.318    -0.302     (0)  
   H3(Citrate)     3.819e-15   3.819e-15   -14.418   -14.418     0.000     (0)  
Cl            8.534e-02
   Cl-             8.534e-02   6.239e-02    -1.069    -1.205    -0.136     (0)  
Eugenol       1.700e-02
   H(Eugenol)      1.700e-02   1.842e-02    -1.770    -1.735     0.035     (0)  
   Eugenol-        9.809e-07   7.171e-07    -6.008    -6.144    -0.136     (0)  
Formate       1.700e-02
   Formate-        1.684e-02   1.232e-02    -1.774    -1.910    -0.136     (0)  
   H(Formate)      1.245e-04   1.245e-04    -3.905    -3.905     0.000     (0)  
   Ca(Formate)+    3.085e-05   1.540e-05    -4.511    -4.812    -0.302     (0)  
H(0)          3.581e-14
   H2              1.790e-14   1.941e-14   -13.747   -13.712     0.035     (0)  
Hydroquinone   1.700e-02
   H(Hydroquinone)-   1.700e-02   1.243e-02    -1.770    -1.906    -0.136     (0)  
   Hydroquinone-2   3.378e-06   9.650e-07    -5.471    -6.015    -0.544     (0)  
   H2(Hydroquinone)   7.399e-07   8.019e-07    -6.131    -6.096     0.035     (0)  
K             2.600e-01
   K+              2.494e-01   1.824e-01    -0.603    -0.739    -0.136     (0)  
   K(Citrate)-2    9.331e-03   5.802e-04    -2.030    -3.236    -1.206     (0)  
   K(Acetate)      1.226e-03   1.226e-03    -2.912    -2.912     0.000     (0)  
Lactate       1.700e-02
   Lactate-        1.683e-02   1.230e-02    -1.774    -1.910    -0.136     (0)  
   H(Lactate)      1.717e-04   1.861e-04    -3.765    -3.730     0.035     (0)  
Na            5.000e-02
   Na+             4.809e-02   3.516e-02    -1.318    -1.454    -0.136     (0)  
   Na(Citrate)-2   1.531e-03   9.520e-05    -2.815    -4.021    -1.206     (0)  
   Na(Acetate)     2.449e-04   2.449e-04    -3.611    -3.611     0.000     (0)  
   NaH(Citrate)-   9.120e-05   4.554e-05    -4.040    -4.342    -0.302     (0)  
   Na2(Citrate)-   1.978e-05   9.878e-06    -4.704    -5.005    -0.302     (0)  
   NaHCO3          3.585e-06   3.585e-06    -5.446    -5.446     0.000     (0)  
   NaCO3-          4.294e-09   3.060e-09    -8.367    -8.514    -0.147     (0)  
O(0)          0.000e+00
   O2              0.000e+00   0.000e+00   -64.915   -64.880     0.035     (0)  
Oxalate       1.700e-02
   Oxalate-2       1.700e-02   4.857e-03    -1.770    -2.314    -0.544     (0)  
   H(Oxalate)-     3.485e-07   2.548e-07    -6.458    -6.594    -0.136     (0)  
   H2(Oxalate)     3.724e-10   4.036e-10    -9.429    -9.394     0.035     (0)  
Propionate    1.700e-02
   Propionate-     1.545e-02   1.130e-02    -1.811    -1.947    -0.136     (0)  
   H(Propionate)   1.537e-03   1.537e-03    -2.813    -2.813     0.000     (0)  
   Ca(Propionate)+   8.927e-06   4.458e-06    -5.049    -5.351    -0.302     (0)  
Valspice      1.700e-02
   H(Valspice)     1.700e-02   1.842e-02    -1.770    -1.735     0.035     (0)  
   Valspice-       7.441e-07   5.440e-07    -6.128    -6.264    -0.136     (0)  

------------------------------Saturation indices-------------------------------

  Phase               SI** log IAP   log K(298 K,   1 atm)

  Aragonite        -4.36    -12.66   -8.30  CaCO3
  Calcite          -4.18    -12.66   -8.48  CaCO3
  CH4(g)          -21.00    -62.05  -41.05  CH4
  CO2(g)           -1.66    -19.81  -18.15  CO2
  Halite           -4.26     -2.66    1.60  NaCl
  Lime            -25.56      7.14   32.70  CaO
  Natron           -9.97    -11.28   -1.31  Na2CO3:10H2O
  O2(g)           -61.97     21.12   83.09  O2
  Portlandite     -15.67      7.14   22.80  Ca(OH)2
  Thermonatrite   -11.88    -11.24    0.64  Na2CO3:H2O

**For a gas, SI = log10(fugacity). Fugacity = pressure * phi / 1 atm.
  For ideal gases, phi = 1.

Reaction step 2.

Using solution 1.	
Using reaction 1.	

Reaction 1.	

	  4.000e+00 moles of the following reaction have been added:

	                 Relative
	Reactant            moles

	HCl                  0.00010

	                 Relative
	Element             moles
	Cl                   0.00010
	H                    0.00010

-----------------------------Solution composition------------------------------

	Elements           Molality       Moles

	Acetate           1.700e-02   8.160e-04
	Aguaiacyl         1.700e-02   8.160e-04
	Bguaiacyl         1.700e-02   8.160e-04
	C                 1.000e-03   4.800e-05
	Ca                2.000e-03   9.600e-05
	Cguaiacyl         1.700e-02   8.160e-04
	Citrate           1.700e-02   8.160e-04
	Cl                8.951e-02   4.296e-03
	Eugenol           1.700e-02   8.160e-04
	Formate           1.700e-02   8.160e-04
	Hydroquinone      1.700e-02   8.160e-04
	K                 2.600e-01   1.248e-02
	Lactate           1.700e-02   8.160e-04
	Na                5.000e-02   2.400e-03
	Oxalate           1.700e-02   8.160e-04
	Propionate        1.700e-02   8.160e-04
	Valspice          1.700e-02   8.160e-04

----------------------------Description of solution----------------------------

                                       pH  =   5.570      Charge balance
                                       pe  =  -0.211      Adjusted to redox equilibrium
                        Activity of water  =   0.990
                           Ionic strength  =   3.473e-01
                       Mass of water (kg)  =   4.800e-02
                 Total alkalinity (eq/kg)  =   1.055e-01
                       Total CO2 (mol/kg)  =   1.000e-03
                         Temperature (°C)  =  25.00
                  Electrical balance (eq)  =   3.896e-18
 Percent error, 100*(Cat-|An|)/(Cat+|An|)  =   0.00
                               Iterations  =   9
                                  Total H  = 5.333480e+00
                                  Total O  = 2.664472e+00

----------------------------Distribution of species----------------------------

                                               Log       Log       Log    mole V
   Species          Molality    Activity  Molality  Activity     Gamma   cm³/mol

   H+              3.680e-06   2.691e-06    -5.434    -5.570    -0.136      0.00
   OH-             5.597e-09   3.705e-09    -8.252    -8.431    -0.179     (0)  
   H2O             5.551e+01   9.899e-01     1.744    -0.004     0.000     18.07
Acetate       1.700e-02
   Acetate-        1.399e-02   1.023e-02    -1.854    -1.990    -0.136     (0)  
   H(Acetate)      1.572e-03   1.572e-03    -2.803    -2.803     0.000     (0)  
   K(Acetate)      1.190e-03   1.190e-03    -2.925    -2.925     0.000     (0)  
   Na(Acetate)     2.374e-04   2.374e-04    -3.624    -3.624     0.000     (0)  
   Ca(Acetate)+    1.423e-05   7.123e-06    -4.847    -5.147    -0.301     (0)  
Aguaiacyl     1.700e-02
   H(Aguaiacyl)-   1.444e-02   1.056e-02    -1.840    -1.976    -0.136     (0)  
   Aguaiacyl-2     1.852e-03   5.294e-04    -2.732    -3.276    -0.544     (0)  
   H2(Aguaiacyl)   7.059e-04   7.647e-04    -3.151    -3.117     0.035     (0)  
Bguaiacyl     1.700e-02
   H(Bguaiacyl)-   1.016e-02   7.432e-03    -1.993    -2.129    -0.136     (0)  
   Bguaiacyl-2     6.686e-03   1.911e-03    -2.175    -2.719    -0.544     (0)  
   H2(Bguaiacyl)   1.500e-04   1.625e-04    -3.824    -3.789     0.035     (0)  
C(4)          1.000e-03
   H2CO3           8.095e-04   8.095e-04    -3.092    -3.092     0.000     (0)  
   HCO3-           1.876e-04   1.338e-04    -3.727    -3.874    -0.147     (0)  
   NaHCO3          2.644e-06   2.644e-06    -5.578    -5.578     0.000     (0)  
   CaHCO3+         1.579e-07   1.146e-07    -6.802    -6.941    -0.139     (0)  
   CO3-2           8.156e-09   2.331e-09    -8.089    -8.632    -0.544     (0)  
   NaCO3-          2.140e-09   1.525e-09    -8.670    -8.817    -0.147     (0)  
   CaCO3           1.700e-10   1.700e-10    -9.770    -9.770     0.000     (0)  
Ca            2.000e-03
   Ca(Citrate)-    1.728e-03   8.651e-04    -2.762    -3.063    -0.301     (0)  
   Ca+2            1.610e-04   4.602e-05    -3.793    -4.337    -0.544     (0)  
   CaH(Citrate)    5.714e-05   5.714e-05    -4.243    -4.243     0.000     (0)  
   Ca(Formate)+    3.037e-05   1.520e-05    -4.518    -4.818    -0.301     (0)  
   Ca(Acetate)+    1.423e-05   7.123e-06    -4.847    -5.147    -0.301     (0)  
   Ca(Propionate)+   8.453e-06   4.231e-06    -5.073    -5.374    -0.301     (0)  
   CaH2(Citrate)+   3.050e-07   1.527e-07    -6.516    -6.816    -0.301     (0)  
   CaHCO3+         1.579e-07   1.146e-07    -6.802    -6.941    -0.139     (0)  
   CaCO3           1.700e-10   1.700e-10    -9.770    -9.770     0.000     (0)  
   CaOH+           4.686e-12   3.402e-12   -11.329   -11.468    -0.139     (0)  
Cguaiacyl     1.700e-02
   H(Cguaiacyl)-   1.697e-02   1.241e-02    -1.770    -1.906    -0.136     (0)  
   Cguaiacyl-2     2.557e-05   7.309e-06    -4.592    -5.136    -0.544     (0)  
   H2(Cguaiacyl)   4.884e-06   5.291e-06    -5.311    -5.276     0.035     (0)  
Citrate       1.700e-02
   K(Citrate)-2    9.278e-03   5.825e-04    -2.033    -3.235    -1.202     (0)  
   Citrate-3       4.245e-03   2.536e-04    -2.372    -3.596    -1.224     (0)  
   Ca(Citrate)-    1.728e-03   8.651e-04    -2.762    -3.063    -0.301     (0)  
   Na(Citrate)-2   1.521e-03   9.549e-05    -2.818    -4.020    -1.202     (0)  
   NaH(Citrate)-   1.350e-04   6.758e-05    -3.870    -4.170    -0.301     (0)  
   CaH(Citrate)    5.714e-05   5.714e-05    -4.243    -4.243     0.000     (0)  
   Na2(Citrate)-   1.979e-05   9.904e-06    -4.704    -5.004    -0.301     (0)  
   H(Citrate)-2    1.466e-05   9.204e-07    -4.834    -6.036    -1.202     (0)  
   CaH2(Citrate)+   3.050e-07   1.527e-07    -6.516    -6.816    -0.301     (0)  
   H2(Citrate)-    2.110e-10   1.056e-10    -9.676    -9.976    -0.301     (0)  
   H3(Citrate)     1.241e-14   1.241e-14   -13.906   -13.906     0.000     (0)  
Cl            8.951e-02
   Cl-             8.951e-02   6.544e-02    -1.048    -1.184    -0.136     (0)  
Eugenol       1.700e-02
   H(Eugenol)      1.700e-02   1.841e-02    -1.770    -1.735     0.035     (0)  
   Eugenol-        6.627e-07   4.845e-07    -6.179    -6.315    -0.136     (0)  
Formate       1.700e-02
   Formate-        1.679e-02   1.227e-02    -1.775    -1.911    -0.136     (0)  
   H(Formate)      1.836e-04   1.836e-04    -3.736    -3.736     0.000     (0)  
   Ca(Formate)+    3.037e-05   1.520e-05    -4.518    -4.818    -0.301     (0)  
H(0)          2.498e-14
   H2              1.249e-14   1.353e-14   -13.903   -13.869     0.035     (0)  
Hydroquinone   1.700e-02
   H(Hydroquinone)-   1.700e-02   1.243e-02    -1.770    -1.906    -0.136     (0)  
   Hydroquinone-2   2.283e-06   6.524e-07    -5.642    -6.185    -0.544     (0)  
   H2(Hydroquinone)   1.095e-06   1.186e-06    -5.960    -5.926     0.035     (0)  
K             2.600e-01
   K+              2.495e-01   1.825e-01    -0.603    -0.739    -0.136     (0)  
   K(Citrate)-2    9.278e-03   5.825e-04    -2.033    -3.235    -1.202     (0)  
   K(Acetate)      1.190e-03   1.190e-03    -2.925    -2.925     0.000     (0)  
Lactate       1.700e-02
   Lactate-        1.675e-02   1.225e-02    -1.776    -1.912    -0.136     (0)  
   H(Lactate)      2.530e-04   2.740e-04    -3.597    -3.562     0.035     (0)  
Na            5.000e-02
   Na+             4.806e-02   3.514e-02    -1.318    -1.454    -0.136     (0)  
   Na(Citrate)-2   1.521e-03   9.549e-05    -2.818    -4.020    -1.202     (0)  
   Na(Acetate)     2.374e-04   2.374e-04    -3.624    -3.624     0.000     (0)  
   NaH(Citrate)-   1.350e-04   6.758e-05    -3.870    -4.170    -0.301     (0)  
   Na2(Citrate)-   1.979e-05   9.904e-06    -4.704    -5.004    -0.301     (0)  
   NaHCO3          2.644e-06   2.644e-06    -5.578    -5.578     0.000     (0)  
   NaCO3-          2.140e-09   1.525e-09    -8.670    -8.817    -0.147     (0)  
O(0)          0.000e+00
   O2              0.000e+00   0.000e+00   -64.601   -64.566     0.035     (0)  
Oxalate       1.700e-02
   Oxalate-2       1.700e-02   4.859e-03    -1.770    -2.313    -0.544     (0)  
   H(Oxalate)-     5.156e-07   3.770e-07    -6.288    -6.424    -0.136     (0)  
   H2(Oxalate)     8.156e-10   8.835e-10    -9.089    -9.054     0.035     (0)  
Propionate    1.700e-02
   Propionate-     1.481e-02   1.083e-02    -1.829    -1.965    -0.136     (0)  
   H(Propionate)   2.180e-03   2.180e-03    -2.662    -2.662     0.000     (0)  
   Ca(Propionate)+   8.453e-06   4.231e-06    -5.073    -5.374    -0.301     (0)  
Valspice      1.700e-02
   H(Valspice)     1.700e-02   1.841e-02    -1.770    -1.735     0.035     (0)  
   Valspice-       5.027e-07   3.675e-07    -6.299    -6.435    -0.136     (0)  

------------------------------Saturation indices-------------------------------

  Phase               SI** log IAP   log K(298 K,   1 atm)

  Aragonite        -4.67    -12.97   -8.30  CaCO3
  Calcite          -4.49    -12.97   -8.48  CaCO3
  CH4(g)          -21.59    -62.63  -41.05  CH4
  CO2(g)           -1.62    -19.77  -18.15  CO2
  Halite           -4.24     -2.64    1.60  NaCl
  Lime            -25.90      6.80   32.70  CaO
  Natron          -10.27    -11.58   -1.31  Na2CO3:10H2O
  O2(g)           -61.66     21.43   83.09  O2
  Portlandite     -16.01      6.79   22.80  Ca(OH)2
  Thermonatrite   -12.18    -11.55    0.64  Na2CO3:H2O

**For a gas, SI = log10(fugacity). Fugacity = pressure * phi / 1 atm.
  For ideal gases, phi = 1.

Reaction step 3.

Using solution 1.	
Using reaction 1.	

Reaction 1.	

	  6.000e+00 moles of the following reaction have been added:

	                 Relative
	Reactant            moles

	HCl                  0.00010

	                 Relative
	Element             moles
	Cl                   0.00010
	H                    0.00010

-----------------------------Solution composition------------------------------

	Elements           Molality       Moles

	Acetate           1.700e-02   8.160e-04
	Aguaiacyl         1.700e-02   8.160e-04
	Bguaiacyl         1.700e-02   8.160e-04
	C                 1.000e-03   4.800e-05
	Ca                2.000e-03   9.600e-05
	Cguaiacyl         1.700e-02   8.160e-04
	Citrate           1.700e-02   8.160e-04
	Cl                9.367e-02   4.496e-03
	Eugenol           1.700e-02   8.160e-04
	Formate           1.700e-02   8.160e-04
	Hydroquinone      1.700e-02   8.160e-04
	K                 2.600e-01   1.248e-02
	Lactate           1.700e-02   8.160e-04
	Na                5.000e-02   2.400e-03
	Oxalate           1.700e-02   8.160e-04
	Propionate        1.700e-02   8.160e-04
	Valspice          1.700e-02   8.160e-04

----------------------------Description of solution----------------------------

                                       pH  =   5.411      Charge balance
                                       pe  =  -0.113      Adjusted to redox equilibrium
                        Activity of water  =   0.990
                           Ionic strength  =   3.453e-01
                       Mass of water (kg)  =   4.800e-02
                 Total alkalinity (eq/kg)  =   1.013e-01
                       Total CO2 (mol/kg)  =   1.000e-03
                         Temperature (°C)  =  25.00
                  Electrical balance (eq)  =  -7.295e-15
 Percent error, 100*(Cat-|An|)/(Cat+|An|)  =  -0.00
                               Iterations  =   9
                                  Total H  = 5.333680e+00
                                  Total O  = 2.664472e+00

----------------------------Distribution of species----------------------------

                                               Log       Log       Log    mole V
   Species          Molality    Activity  Molality  Activity     Gamma   cm³/mol

   H+              5.311e-06   3.884e-06    -5.275    -5.411    -0.136      0.00
   OH-             3.874e-09   2.566e-09    -8.412    -8.591    -0.179     (0)  
   H2O             5.551e+01   9.899e-01     1.744    -0.004     0.000     18.07
Acetate       1.700e-02
   Acetate-        1.343e-02   9.824e-03    -1.872    -2.008    -0.136     (0)  
   H(Acetate)      2.180e-03   2.180e-03    -2.661    -2.661     0.000     (0)  
   K(Acetate)      1.143e-03   1.143e-03    -2.942    -2.942     0.000     (0)  
   Na(Acetate)     2.279e-04   2.279e-04    -3.642    -3.642     0.000     (0)  
   Ca(Acetate)+    1.349e-05   6.766e-06    -4.870    -5.170    -0.300     (0)  
Aguaiacyl     1.700e-02
   H(Aguaiacyl)-   1.466e-02   1.072e-02    -1.834    -1.970    -0.136     (0)  
   Aguaiacyl-2     1.303e-03   3.724e-04    -2.885    -3.429    -0.544     (0)  
   H2(Aguaiacyl)   1.035e-03   1.121e-03    -2.985    -2.950     0.035     (0)  
Bguaiacyl     1.700e-02
   H(Bguaiacyl)-   1.151e-02   8.417e-03    -1.939    -2.075    -0.136     (0)  
   Bguaiacyl-2     5.244e-03   1.499e-03    -2.280    -2.824    -0.544     (0)  
   H2(Bguaiacyl)   2.454e-04   2.657e-04    -3.610    -3.576     0.035     (0)  
C(4)          1.000e-03
   H2CO3           8.599e-04   8.599e-04    -3.066    -3.066     0.000     (0)  
   HCO3-           1.380e-04   9.845e-05    -3.860    -4.007    -0.147     (0)  
   NaHCO3          1.944e-06   1.944e-06    -5.711    -5.711     0.000     (0)  
   CaHCO3+         1.148e-07   8.341e-08    -6.940    -7.079    -0.139     (0)  
   CO3-2           4.156e-09   1.188e-09    -8.381    -8.925    -0.544     (0)  
   NaCO3-          1.090e-09   7.772e-10    -8.963    -9.109    -0.147     (0)  
   CaCO3           8.570e-11   8.570e-11   -10.067   -10.067     0.000     (0)  
Ca            2.000e-03
   Ca(Citrate)-    1.707e-03   8.563e-04    -2.768    -3.067    -0.300     (0)  
   Ca+2            1.591e-04   4.550e-05    -3.798    -4.342    -0.544     (0)  
   CaH(Citrate)    8.163e-05   8.163e-05    -4.088    -4.088     0.000     (0)  
   Ca(Formate)+    2.983e-05   1.496e-05    -4.525    -4.825    -0.300     (0)  
   Ca(Acetate)+    1.349e-05   6.766e-06    -4.870    -5.170    -0.300     (0)  
   Ca(Propionate)+   7.893e-06   3.959e-06    -5.103    -5.402    -0.300     (0)  
   CaH2(Citrate)+   6.278e-07   3.149e-07    -6.202    -6.502    -0.300     (0)  
   CaHCO3+         1.148e-07   8.341e-08    -6.940    -7.079    -0.139     (0)  
   CaCO3           8.570e-11   8.570e-11   -10.067   -10.067     0.000     (0)  
   CaOH+           3.208e-12   2.330e-12   -11.494   -11.633    -0.139     (0)  
Cguaiacyl     1.700e-02
   H(Cguaiacyl)-   1.698e-02   1.241e-02    -1.770    -1.906    -0.136     (0)  
   Cguaiacyl-2     1.772e-05   5.066e-06    -4.752    -5.295    -0.544     (0)  
   H2(Cguaiacyl)   7.057e-06   7.640e-06    -5.151    -5.117     0.035     (0)  
Citrate       1.700e-02
   K(Citrate)-2    9.219e-03   5.834e-04    -2.035    -3.234    -1.199     (0)  
   Citrate-3       4.247e-03   2.539e-04    -2.372    -3.595    -1.223     (0)  
   Ca(Citrate)-    1.707e-03   8.563e-04    -2.768    -3.067    -0.300     (0)  
   Na(Citrate)-2   1.510e-03   9.553e-05    -2.821    -4.020    -1.199     (0)  
   NaH(Citrate)-   1.946e-04   9.758e-05    -3.711    -4.011    -0.300     (0)  
   CaH(Citrate)    8.163e-05   8.163e-05    -4.088    -4.088     0.000     (0)  
   H(Citrate)-2    2.102e-05   1.330e-06    -4.677    -5.876    -1.199     (0)  
   Na2(Citrate)-   1.974e-05   9.901e-06    -4.705    -5.004    -0.300     (0)  
   CaH2(Citrate)+   6.278e-07   3.149e-07    -6.202    -6.502    -0.300     (0)  
   H2(Citrate)-    4.393e-10   2.203e-10    -9.357    -9.657    -0.300     (0)  
   H3(Citrate)     3.735e-14   3.735e-14   -13.428   -13.428     0.000     (0)  
Cl            9.367e-02
   Cl-             9.367e-02   6.850e-02    -1.028    -1.164    -0.136     (0)  
Eugenol       1.700e-02
   H(Eugenol)      1.700e-02   1.841e-02    -1.770    -1.735     0.035     (0)  
   Eugenol-        4.588e-07   3.355e-07    -6.338    -6.474    -0.136     (0)  
Formate       1.700e-02
   Formate-        1.671e-02   1.222e-02    -1.777    -1.913    -0.136     (0)  
   H(Formate)      2.637e-04   2.637e-04    -3.579    -3.579     0.000     (0)  
   Ca(Formate)+    2.983e-05   1.496e-05    -4.525    -4.825    -0.300     (0)  
H(0)          3.326e-14
   H2              1.663e-14   1.801e-14   -13.779   -13.745     0.035     (0)  
Hydroquinone   1.700e-02
   H(Hydroquinone)-   1.700e-02   1.243e-02    -1.770    -1.906    -0.136     (0)  
   H2(Hydroquinone)   1.582e-06   1.713e-06    -5.801    -5.766     0.035     (0)  
   Hydroquinone-2   1.581e-06   4.520e-07    -5.801    -6.345    -0.544     (0)  
K             2.600e-01
   K+              2.496e-01   1.825e-01    -0.603    -0.739    -0.136     (0)  
   K(Citrate)-2    9.219e-03   5.834e-04    -2.035    -3.234    -1.199     (0)  
   K(Acetate)      1.143e-03   1.143e-03    -2.942    -2.942     0.000     (0)  
Lactate       1.700e-02
   Lactate-        1.664e-02   1.217e-02    -1.779    -1.915    -0.136     (0)  
   H(Lactate)      3.630e-04   3.930e-04    -3.440    -3.406     0.035     (0)  
Na            5.000e-02
   Na+             4.803e-02   3.512e-02    -1.319    -1.454    -0.136     (0)  
   Na(Citrate)-2   1.510e-03   9.553e-05    -2.821    -4.020    -1.199     (0)  
   Na(Acetate)     2.279e-04   2.279e-04    -3.642    -3.642     0.000     (0)  
   NaH(Citrate)-   1.946e-04   9.758e-05    -3.711    -4.011    -0.300     (0)  
   Na2(Citrate)-   1.974e-05   9.901e-06    -4.705    -5.004    -0.300     (0)  
   NaHCO3          1.944e-06   1.944e-06    -5.711    -5.711     0.000     (0)  
   NaCO3-          1.090e-09   7.772e-10    -8.963    -9.109    -0.147     (0)  
O(0)          0.000e+00
   O2              0.000e+00   0.000e+00   -64.849   -64.815     0.035     (0)  
Oxalate       1.700e-02
   Oxalate-2       1.700e-02   4.860e-03    -1.770    -2.313    -0.544     (0)  
   H(Oxalate)-     7.445e-07   5.444e-07    -6.128    -6.264    -0.136     (0)  
   H2(Oxalate)     1.701e-09   1.841e-09    -8.769    -8.735     0.035     (0)  
Propionate    1.700e-02
   Propionate-     1.401e-02   1.025e-02    -1.853    -1.989    -0.136     (0)  
   H(Propionate)   2.978e-03   2.978e-03    -2.526    -2.526     0.000     (0)  
   Ca(Propionate)+   7.893e-06   3.959e-06    -5.103    -5.402    -0.300     (0)  
Valspice      1.700e-02
   H(Valspice)     1.700e-02   1.841e-02    -1.770    -1.735     0.035     (0)  
   Valspice-       3.481e-07   2.545e-07    -6.458    -6.594    -0.136     (0)  

------------------------------Saturation indices-------------------------------

  Phase               SI** log IAP   log K(298 K,   1 atm)

  Aragonite        -4.97    -13.27   -8.30  CaCO3
  Calcite          -4.79    -13.27   -8.48  CaCO3
  CH4(g)          -21.07    -62.11  -41.05  CH4
  CO2(g)           -1.60    -19.74  -18.15  CO2
  Halite           -4.22     -2.62    1.60  NaCl
  Lime            -26.22      6.48   32.70  CaO
  Natron          -10.57    -11.88   -1.31  Na2CO3:10H2O
  O2(g)           -61.91     21.18   83.09  O2
  Portlandite     -16.33      6.47   22.80  Ca(OH)2
  Thermonatrite   -12.48    -11.84    0.64  Na2CO3:H2O

**For a gas, SI = log10(fugacity). Fugacity = pressure * phi / 1 atm.
  For ideal gases, phi = 1.

Reaction step 4.

Using solution 1.	
Using reaction 1.	

Reaction 1.	

	  8.000e+00 moles of the following reaction have been added:

	                 Relative
	Reactant            moles

	HCl                  0.00010

	                 Relative
	Element             moles
	Cl                   0.00010
	H                    0.00010

-----------------------------Solution composition------------------------------

	Elements           Molality       Moles

	Acetate           1.700e-02   8.160e-04
	Aguaiacyl         1.700e-02   8.160e-04
	Bguaiacyl         1.700e-02   8.160e-04
	C                 1.000e-03   4.800e-05
	Ca                2.000e-03   9.600e-05
	Cguaiacyl         1.700e-02   8.160e-04
	Citrate           1.700e-02   8.160e-04
	Cl                9.784e-02   4.696e-03
	Eugenol           1.700e-02   8.160e-04
	Formate           1.700e-02   8.160e-04
	Hydroquinone      1.700e-02   8.160e-04
	K                 2.600e-01   1.248e-02
	Lactate           1.700e-02   8.160e-04
	Na                5.000e-02   2.400e-03
	Oxalate           1.700e-02   8.160e-04
	Propionate        1.700e-02   8.160e-04
	Valspice          1.700e-02   8.160e-04

----------------------------Description of solution----------------------------

                                       pH  =   5.263      Charge balance
                                       pe  =  -0.032      Adjusted to redox equilibrium
                        Activity of water  =   0.990
                           Ionic strength  =   3.437e-01
                       Mass of water (kg)  =   4.800e-02
                 Total alkalinity (eq/kg)  =   9.716e-02
                       Total CO2 (mol/kg)  =   1.000e-03
                         Temperature (°C)  =  25.00
                  Electrical balance (eq)  =   5.241e-18
 Percent error, 100*(Cat-|An|)/(Cat+|An|)  =   0.00
                               Iterations  =   9
                                  Total H  = 5.333880e+00
                                  Total O  = 2.664472e+00

----------------------------Distribution of species----------------------------

                                               Log       Log       Log    mole V
   Species          Molality    Activity  Molality  Activity     Gamma   cm³/mol

   H+              7.457e-06   5.453e-06    -5.127    -5.263    -0.136      0.00
   OH-             2.757e-09   1.828e-09    -8.560    -8.738    -0.179     (0)  
   H2O             5.551e+01   9.898e-01     1.744    -0.004     0.000     18.07
Acetate       1.700e-02
   Acetate-        1.277e-02   9.340e-03    -1.894    -2.030    -0.136     (0)  
   H(Acetate)      2.911e-03   2.911e-03    -2.536    -2.536     0.000     (0)  
   K(Acetate)      1.088e-03   1.088e-03    -2.964    -2.964     0.000     (0)  
   Na(Acetate)     2.165e-04   2.165e-04    -3.665    -3.665     0.000     (0)  
   Ca(Acetate)+    1.264e-05   6.348e-06    -4.898    -5.197    -0.299     (0)  
Aguaiacyl     1.700e-02
   H(Aguaiacyl)-   1.462e-02   1.069e-02    -1.835    -1.971    -0.136     (0)  
   H2(Aguaiacyl)   1.450e-03   1.570e-03    -2.839    -2.804     0.034     (0)  
   Aguaiacyl-2     9.250e-04   2.645e-04    -3.034    -3.577    -0.544     (0)  
Bguaiacyl     1.700e-02
   H(Bguaiacyl)-   1.255e-02   9.179e-03    -1.901    -2.037    -0.136     (0)  
   Bguaiacyl-2     4.072e-03   1.165e-03    -2.390    -2.934    -0.544     (0)  
   H2(Bguaiacyl)   3.759e-04   4.069e-04    -3.425    -3.391     0.034     (0)  
C(4)          1.000e-03
   H2CO3           8.961e-04   8.961e-04    -3.048    -3.048     0.000     (0)  
   HCO3-           1.024e-04   7.306e-05    -3.990    -4.136    -0.147     (0)  
   NaHCO3          1.441e-06   1.441e-06    -5.841    -5.841     0.000     (0)  
   CaHCO3+         8.408e-08   6.109e-08    -7.075    -7.214    -0.139     (0)  
   CO3-2           2.196e-09   6.281e-10    -8.658    -9.202    -0.544     (0)  
   NaCO3-          5.750e-10   4.103e-10    -9.240    -9.387    -0.147     (0)  
   CaCO3           4.470e-11   4.470e-11   -10.350   -10.350     0.000     (0)  
Ca            2.000e-03
   Ca(Citrate)-    1.680e-03   8.438e-04    -2.775    -3.074    -0.299     (0)  
   Ca+2            1.570e-04   4.491e-05    -3.804    -4.348    -0.544     (0)  
   CaH(Citrate)    1.130e-04   1.130e-04    -3.947    -3.947     0.000     (0)  
   Ca(Formate)+    2.921e-05   1.467e-05    -4.534    -4.833    -0.299     (0)  
   Ca(Acetate)+    1.264e-05   6.348e-06    -4.898    -5.197    -0.299     (0)  
   Ca(Propionate)+   7.263e-06   3.649e-06    -5.139    -5.438    -0.299     (0)  
   CaH2(Citrate)+   1.218e-06   6.117e-07    -5.914    -6.213    -0.299     (0)  
   CaHCO3+         8.408e-08   6.109e-08    -7.075    -7.214    -0.139     (0)  
   CaCO3           4.470e-11   4.470e-11   -10.350   -10.350     0.000     (0)  
   CaOH+           2.254e-12   1.637e-12   -11.647   -11.786    -0.139     (0)  
Cguaiacyl     1.700e-02
   H(Cguaiacyl)-   1.698e-02   1.242e-02    -1.770    -1.906    -0.136     (0)  
   Cguaiacyl-2     1.262e-05   3.608e-06    -4.899    -5.443    -0.544     (0)  
   H2(Cguaiacyl)   9.915e-06   1.073e-05    -5.004    -4.969     0.034     (0)  
Citrate       1.700e-02
   K(Citrate)-2    9.152e-03   5.828e-04    -2.039    -3.234    -1.196     (0)  
   Citrate-3       4.237e-03   2.535e-04    -2.373    -3.596    -1.223     (0)  
   Ca(Citrate)-    1.680e-03   8.438e-04    -2.775    -3.074    -0.299     (0)  
   Na(Citrate)-2   1.496e-03   9.528e-05    -2.825    -4.021    -1.196     (0)  
   NaH(Citrate)-   2.721e-04   1.367e-04    -3.565    -3.864    -0.299     (0)  
   CaH(Citrate)    1.130e-04   1.130e-04    -3.947    -3.947     0.000     (0)  
   H(Citrate)-2    2.928e-05   1.865e-06    -4.533    -5.729    -1.196     (0)  
   Na2(Citrate)-   1.964e-05   9.866e-06    -4.707    -5.006    -0.299     (0)  
   CaH2(Citrate)+   1.218e-06   6.117e-07    -5.914    -6.213    -0.299     (0)  
   H2(Citrate)-    8.635e-10   4.338e-10    -9.064    -9.363    -0.299     (0)  
   H3(Citrate)     1.033e-13   1.033e-13   -12.986   -12.986     0.000     (0)  
Cl            9.784e-02
   Cl-             9.784e-02   7.155e-02    -1.009    -1.145    -0.136     (0)  
Eugenol       1.700e-02
   H(Eugenol)      1.700e-02   1.840e-02    -1.770    -1.735     0.034     (0)  
   Eugenol-        3.266e-07   2.389e-07    -6.486    -6.622    -0.136     (0)  
Formate       1.700e-02
   Formate-        1.660e-02   1.214e-02    -1.780    -1.916    -0.136     (0)  
   H(Formate)      3.681e-04   3.681e-04    -3.434    -3.434     0.000     (0)  
   Ca(Formate)+    2.921e-05   1.467e-05    -4.534    -4.833    -0.299     (0)  
H(0)          4.517e-14
   H2              2.258e-14   2.444e-14   -13.646   -13.612     0.034     (0)  
Hydroquinone   1.700e-02
   H(Hydroquinone)-   1.700e-02   1.243e-02    -1.770    -1.906    -0.136     (0)  
   H2(Hydroquinone)   2.222e-06   2.405e-06    -5.653    -5.619     0.034     (0)  
   Hydroquinone-2   1.126e-06   3.219e-07    -5.949    -6.492    -0.544     (0)  
K             2.600e-01
   K+              2.498e-01   1.826e-01    -0.602    -0.738    -0.136     (0)  
   K(Citrate)-2    9.152e-03   5.828e-04    -2.039    -3.234    -1.196     (0)  
   K(Acetate)      1.088e-03   1.088e-03    -2.964    -2.964     0.000     (0)  
Lactate       1.700e-02
   Lactate-        1.649e-02   1.206e-02    -1.783    -1.919    -0.136     (0)  
   H(Lactate)      5.055e-04   5.471e-04    -3.296    -3.262     0.034     (0)  
Na            5.000e-02
   Na+             4.797e-02   3.508e-02    -1.319    -1.455    -0.136     (0)  
   Na(Citrate)-2   1.496e-03   9.528e-05    -2.825    -4.021    -1.196     (0)  
   NaH(Citrate)-   2.721e-04   1.367e-04    -3.565    -3.864    -0.299     (0)  
   Na(Acetate)     2.165e-04   2.165e-04    -3.665    -3.665     0.000     (0)  
   Na2(Citrate)-   1.964e-05   9.866e-06    -4.707    -5.006    -0.299     (0)  
   NaHCO3          1.441e-06   1.441e-06    -5.841    -5.841     0.000     (0)  
   NaCO3-          5.750e-10   4.103e-10    -9.240    -9.387    -0.147     (0)  
O(0)          0.000e+00
   O2              0.000e+00   0.000e+00   -65.115   -65.080     0.034     (0)  
Oxalate       1.700e-02
   Oxalate-2       1.700e-02   4.862e-03    -1.770    -2.313    -0.544     (0)  
   H(Oxalate)-     1.046e-06   7.646e-07    -5.981    -6.117    -0.136     (0)  
   H2(Oxalate)     3.356e-09   3.632e-09    -8.474    -8.440     0.034     (0)  
Propionate    1.700e-02
   Propionate-     1.309e-02   9.571e-03    -1.883    -2.019    -0.136     (0)  
   H(Propionate)   3.905e-03   3.905e-03    -2.408    -2.408     0.000     (0)  
   Ca(Propionate)+   7.263e-06   3.649e-06    -5.139    -5.438    -0.299     (0)  
Valspice      1.700e-02
   H(Valspice)     1.700e-02   1.840e-02    -1.770    -1.735     0.034     (0)  
   Valspice-       2.478e-07   1.812e-07    -6.606    -6.742    -0.136     (0)  

------------------------------Saturation indices-------------------------------

  Phase               SI** log IAP   log K(298 K,   1 atm)

  Aragonite        -5.25    -13.55   -8.30  CaCO3
  Calcite          -5.07    -13.55   -8.48  CaCO3
  CH4(g)          -20.52    -61.56  -41.05  CH4
  CO2(g)           -1.58    -19.72  -18.15  CO2
  Halite           -4.20     -2.60    1.60  NaCl
  Lime            -26.52      6.17   32.70  CaO
  Natron          -10.85    -12.16   -1.31  Na2CO3:10H2O
  O2(g)           -62.17     20.91   83.09  O2
  Portlandite     -16.63      6.17   22.80  Ca(OH)2
  Thermonatrite   -12.75    -12.12    0.64  Na2CO3:H2O

**For a gas, SI = log10(fugacity). Fugacity = pressure * phi / 1 atm.
  For ideal gases, phi = 1.

Reaction step 5.

Using solution 1.	
Using reaction 1.	

Reaction 1.	

	  1.000e+01 moles of the following reaction have been added:

	                 Relative
	Reactant            moles

	HCl                  0.00010

	                 Relative
	Element             moles
	Cl                   0.00010
	H                    0.00010

-----------------------------Solution composition------------------------------

	Elements           Molality       Moles

	Acetate           1.700e-02   8.160e-04
	Aguaiacyl         1.700e-02   8.160e-04
	Bguaiacyl         1.700e-02   8.160e-04
	C                 1.000e-03   4.800e-05
	Ca                2.000e-03   9.600e-05
	Cguaiacyl         1.700e-02   8.160e-04
	Citrate           1.700e-02   8.160e-04
	Cl                1.020e-01   4.896e-03
	Eugenol           1.700e-02   8.160e-04
	Formate           1.700e-02   8.160e-04
	Hydroquinone      1.700e-02   8.160e-04
	K                 2.600e-01   1.248e-02
	Lactate           1.700e-02   8.160e-04
	Na                5.000e-02   2.400e-03
	Oxalate           1.700e-02   8.160e-04
	Propionate        1.700e-02   8.160e-04
	Valspice          1.700e-02   8.160e-04

----------------------------Description of solution----------------------------

                                       pH  =   5.128      Charge balance
                                       pe  =   0.120      Adjusted to redox equilibrium
                        Activity of water  =   0.990
                           Ionic strength  =   3.424e-01
                       Mass of water (kg)  =   4.800e-02
                 Total alkalinity (eq/kg)  =   9.299e-02
                       Total CO2 (mol/kg)  =   1.000e-03
                         Temperature (°C)  =  25.00
                  Electrical balance (eq)  =  -1.709e-13
 Percent error, 100*(Cat-|An|)/(Cat+|An|)  =  -0.00
                               Iterations  =   9
                                  Total H  = 5.334080e+00
                                  Total O  = 2.664472e+00

----------------------------Distribution of species----------------------------

                                               Log       Log       Log    mole V
   Species          Molality    Activity  Molality  Activity     Gamma   cm³/mol

   H+              1.018e-05   7.442e-06    -4.992    -5.128    -0.136      0.00
   OH-             2.020e-09   1.339e-09    -8.695    -8.873    -0.178     (0)  
   H2O             5.551e+01   9.897e-01     1.744    -0.004     0.000     18.07
Acetate       1.700e-02
   Acetate-        1.202e-02   8.792e-03    -1.920    -2.056    -0.136     (0)  
   H(Acetate)      3.739e-03   3.739e-03    -2.427    -2.427     0.000     (0)  
   K(Acetate)      1.024e-03   1.024e-03    -2.990    -2.990     0.000     (0)  
   Na(Acetate)     2.035e-04   2.035e-04    -3.691    -3.691     0.000     (0)  
   Ca(Acetate)+    1.170e-05   5.884e-06    -4.932    -5.230    -0.298     (0)  
Aguaiacyl     1.700e-02
   H(Aguaiacyl)-   1.439e-02   1.052e-02    -1.842    -1.978    -0.136     (0)  
   H2(Aguaiacyl)   1.948e-03   2.107e-03    -2.711    -2.676     0.034     (0)  
   Aguaiacyl-2     6.667e-04   1.907e-04    -3.176    -3.720    -0.544     (0)  
Bguaiacyl     1.700e-02
   H(Bguaiacyl)-   1.330e-02   9.724e-03    -1.876    -2.012    -0.136     (0)  
   Bguaiacyl-2     3.160e-03   9.040e-04    -2.500    -3.044    -0.544     (0)  
   H2(Bguaiacyl)   5.436e-04   5.882e-04    -3.265    -3.230     0.034     (0)  
C(4)          1.000e-03
   H2CO3           9.217e-04   9.217e-04    -3.035    -3.035     0.000     (0)  
   HCO3-           7.715e-05   5.507e-05    -4.113    -4.259    -0.146     (0)  
   NaHCO3          1.085e-06   1.085e-06    -5.965    -5.965     0.000     (0)  
   CaHCO3+         6.239e-08   4.534e-08    -7.205    -7.343    -0.139     (0)  
   CO3-2           1.213e-09   3.469e-10    -8.916    -9.460    -0.544     (0)  
   NaCO3-          3.171e-10   2.263e-10    -9.499    -9.645    -0.146     (0)  
   CaCO3           2.431e-11   2.431e-11   -10.614   -10.614     0.000     (0)  
Ca            2.000e-03
   Ca(Citrate)-    1.645e-03   8.275e-04    -2.784    -3.082    -0.298     (0)  
   Ca+2            1.546e-04   4.422e-05    -3.811    -4.354    -0.544     (0)  
   CaH(Citrate)    1.512e-04   1.512e-04    -3.821    -3.821     0.000     (0)  
   Ca(Formate)+    2.851e-05   1.434e-05    -4.545    -4.844    -0.298     (0)  
   Ca(Acetate)+    1.170e-05   5.884e-06    -4.932    -5.230    -0.298     (0)  
   Ca(Propionate)+   6.592e-06   3.316e-06    -5.181    -5.479    -0.298     (0)  
   CaH2(Citrate)+   2.221e-06   1.117e-06    -5.653    -5.952    -0.298     (0)  
   CaHCO3+         6.239e-08   4.534e-08    -7.205    -7.343    -0.139     (0)  
   CaCO3           2.431e-11   2.431e-11   -10.614   -10.614     0.000     (0)  
   CaOH+           1.626e-12   1.182e-12   -11.789   -11.928    -0.139     (0)  
Cguaiacyl     1.700e-02
   H(Cguaiacyl)-   1.698e-02   1.242e-02    -1.770    -1.906    -0.136     (0)  
   H2(Cguaiacyl)   1.353e-05   1.464e-05    -4.869    -4.834     0.034     (0)  
   Cguaiacyl-2     9.244e-06   2.644e-06    -5.034    -5.578    -0.544     (0)  
Citrate       1.700e-02
   K(Citrate)-2    9.075e-03   5.808e-04    -2.042    -3.236    -1.194     (0)  
   Citrate-3       4.218e-03   2.524e-04    -2.375    -3.598    -1.223     (0)  
   Ca(Citrate)-    1.645e-03   8.275e-04    -2.784    -3.082    -0.298     (0)  
   Na(Citrate)-2   1.481e-03   9.477e-05    -2.830    -4.023    -1.194     (0)  
   NaH(Citrate)-   3.688e-04   1.855e-04    -3.433    -3.732    -0.298     (0)  
   CaH(Citrate)    1.512e-04   1.512e-04    -3.821    -3.821     0.000     (0)  
   H(Citrate)-2    3.959e-05   2.534e-06    -4.402    -5.596    -1.194     (0)  
   Na2(Citrate)-   1.948e-05   9.799e-06    -4.710    -5.009    -0.298     (0)  
   CaH2(Citrate)+   2.221e-06   1.117e-06    -5.653    -5.952    -0.298     (0)  
   H2(Citrate)-    1.599e-09   8.045e-10    -8.796    -9.094    -0.298     (0)  
   H3(Citrate)     2.613e-13   2.613e-13   -12.583   -12.583     0.000     (0)  
Cl            1.020e-01
   Cl-             1.020e-01   7.460e-02    -0.991    -1.127    -0.136     (0)  
Eugenol       1.700e-02
   H(Eugenol)      1.700e-02   1.839e-02    -1.770    -1.735     0.034     (0)  
   Eugenol-        2.393e-07   1.750e-07    -6.621    -6.757    -0.136     (0)  
Formate       1.700e-02
   Formate-        1.647e-02   1.205e-02    -1.783    -1.919    -0.136     (0)  
   H(Formate)      4.984e-04   4.984e-04    -3.302    -3.302     0.000     (0)  
   Ca(Formate)+    2.851e-05   1.434e-05    -4.545    -4.844    -0.298     (0)  
H(0)          4.174e-14
   H2              2.087e-14   2.258e-14   -13.681   -13.646     0.034     (0)  
Hydroquinone   1.700e-02
   H(Hydroquinone)-   1.700e-02   1.243e-02    -1.770    -1.906    -0.136     (0)  
   H2(Hydroquinone)   3.033e-06   3.282e-06    -5.518    -5.484     0.034     (0)  
   Hydroquinone-2   8.248e-07   2.359e-07    -6.084    -6.627    -0.544     (0)  
K             2.600e-01
   K+              2.499e-01   1.828e-01    -0.602    -0.738    -0.136     (0)  
   K(Citrate)-2    9.075e-03   5.808e-04    -2.042    -3.236    -1.194     (0)  
   K(Acetate)      1.024e-03   1.024e-03    -2.990    -2.990     0.000     (0)  
Lactate       1.700e-02
   Lactate-        1.632e-02   1.193e-02    -1.787    -1.923    -0.136     (0)  
   H(Lactate)      6.827e-04   7.387e-04    -3.166    -3.132     0.034     (0)  
Na            5.000e-02
   Na+             4.791e-02   3.504e-02    -1.320    -1.455    -0.136     (0)  
   Na(Citrate)-2   1.481e-03   9.477e-05    -2.830    -4.023    -1.194     (0)  
   NaH(Citrate)-   3.688e-04   1.855e-04    -3.433    -3.732    -0.298     (0)  
   Na(Acetate)     2.035e-04   2.035e-04    -3.691    -3.691     0.000     (0)  
   Na2(Citrate)-   1.948e-05   9.799e-06    -4.710    -5.009    -0.298     (0)  
   NaHCO3          1.085e-06   1.085e-06    -5.965    -5.965     0.000     (0)  
   NaCO3-          3.171e-10   2.263e-10    -9.499    -9.645    -0.146     (0)  
O(0)          0.000e+00
   O2              0.000e+00   0.000e+00   -65.046   -65.012     0.034     (0)  
Oxalate       1.700e-02
   Oxalate-2       1.700e-02   4.863e-03    -1.770    -2.313    -0.544     (0)  
   H(Oxalate)-     1.427e-06   1.044e-06    -5.846    -5.981    -0.136     (0)  
   H2(Oxalate)     6.252e-09   6.764e-09    -8.204    -8.170     0.034     (0)  
Propionate    1.700e-02
   Propionate-     1.208e-02   8.832e-03    -1.918    -2.054    -0.136     (0)  
   H(Propionate)   4.917e-03   4.917e-03    -2.308    -2.308     0.000     (0)  
   Ca(Propionate)+   6.592e-06   3.316e-06    -5.181    -5.479    -0.298     (0)  
Valspice      1.700e-02
   H(Valspice)     1.700e-02   1.839e-02    -1.770    -1.735     0.034     (0)  
   Valspice-       1.815e-07   1.327e-07    -6.741    -6.877    -0.136     (0)  

------------------------------Saturation indices-------------------------------

  Phase               SI** log IAP   log K(298 K,   1 atm)

  Aragonite        -5.51    -13.81   -8.30  CaCO3
  Calcite          -5.33    -13.81   -8.48  CaCO3
  CH4(g)          -20.64    -61.69  -41.05  CH4
  CO2(g)           -1.56    -19.71  -18.15  CO2
  Halite           -4.19     -2.58    1.60  NaCl
  Lime            -26.80      5.90   32.70  CaO
  Natron          -11.10    -12.42   -1.31  Na2CO3:10H2O
  O2(g)           -62.11     20.98   83.09  O2
  Portlandite     -16.91      5.89   22.80  Ca(OH)2
  Thermonatrite   -13.01    -12.38    0.64  Na2CO3:H2O

**For a gas, SI = log10(fugacity). Fugacity = pressure * phi / 1 atm.
  For ideal gases, phi = 1.

Reaction step 6.

Using solution 1.	
Using reaction 1.	

Reaction 1.	

	  1.200e+01 moles of the following reaction have been added:

	                 Relative
	Reactant            moles

	HCl                  0.00010

	                 Relative
	Element             moles
	Cl                   0.00010
	H                    0.00010

-----------------------------Solution composition------------------------------

	Elements           Molality       Moles

	Acetate           1.700e-02   8.160e-04
	Aguaiacyl         1.700e-02   8.160e-04
	Bguaiacyl         1.700e-02   8.160e-04
	C                 1.000e-03   4.800e-05
	Ca                2.000e-03   9.600e-05
	Cguaiacyl         1.700e-02   8.160e-04
	Citrate           1.700e-02   8.160e-04
	Cl                1.062e-01   5.096e-03
	Eugenol           1.700e-02   8.160e-04
	Formate           1.700e-02   8.160e-04
	Hydroquinone      1.700e-02   8.160e-04
	K                 2.600e-01   1.248e-02
	Lactate           1.700e-02   8.160e-04
	Na                5.000e-02   2.400e-03
	Oxalate           1.700e-02   8.160e-04
	Propionate        1.700e-02   8.160e-04
	Valspice          1.700e-02   8.160e-04

----------------------------Description of solution----------------------------

                                       pH  =   5.005      Charge balance
                                       pe  =  -0.076      Adjusted to redox equilibrium
                        Activity of water  =   0.990
                           Ionic strength  =   3.414e-01
                       Mass of water (kg)  =   4.800e-02
                 Total alkalinity (eq/kg)  =   8.883e-02
                       Total CO2 (mol/kg)  =   1.000e-03
                         Temperature (°C)  =  25.00
                  Electrical balance (eq)  =  -9.005e-18
 Percent error, 100*(Cat-|An|)/(Cat+|An|)  =  -0.00
                               Iterations  =  10
                                  Total H  = 5.334280e+00
                                  Total O  = 2.664472e+00

----------------------------Distribution of species----------------------------

                                               Log       Log       Log    mole V
   Species          Molality    Activity  Molality  Activity     Gamma   cm³/mol

   H+              1.352e-05   9.886e-06    -4.869    -5.005    -0.136      0.00
   OH-             1.520e-09   1.008e-09    -8.818    -8.997    -0.178     (0)  
   H2O             5.551e+01   9.896e-01     1.744    -0.005     0.000     18.07
Acetate       1.700e-02
   Acetate-        1.121e-02   8.200e-03    -1.950    -2.086    -0.136     (0)  
   H(Acetate)      4.632e-03   4.632e-03    -2.334    -2.334     0.000     (0)  
   K(Acetate)      9.560e-04   9.560e-04    -3.020    -3.020     0.000     (0)  
   Na(Acetate)     1.895e-04   1.895e-04    -3.722    -3.722     0.000     (0)  
   Ca(Acetate)+    1.071e-05   5.390e-06    -4.970    -5.268    -0.298     (0)  
Aguaiacyl     1.700e-02
   H(Aguaiacyl)-   1.399e-02   1.024e-02    -1.854    -1.990    -0.136     (0)  
   H2(Aguaiacyl)   2.517e-03   2.723e-03    -2.599    -2.565     0.034     (0)  
   Aguaiacyl-2     4.881e-04   1.397e-04    -3.311    -3.855    -0.543     (0)  
Bguaiacyl     1.700e-02
   H(Bguaiacyl)-   1.379e-02   1.008e-02    -1.861    -1.996    -0.136     (0)  
   Bguaiacyl-2     2.466e-03   7.056e-04    -2.608    -3.151    -0.543     (0)  
   H2(Bguaiacyl)   7.489e-04   8.101e-04    -3.126    -3.091     0.034     (0)  
C(4)          1.000e-03
   H2CO3           9.399e-04   9.399e-04    -3.027    -3.027     0.000     (0)  
   HCO3-           5.921e-05   4.227e-05    -4.228    -4.374    -0.146     (0)  
   NaHCO3          8.315e-07   8.315e-07    -6.080    -6.080     0.000     (0)  
   CaHCO3+         4.703e-08   3.419e-08    -7.328    -7.466    -0.139     (0)  
   CO3-2           7.007e-10   2.005e-10    -9.154    -9.698    -0.543     (0)  
   NaCO3-          1.829e-10   1.306e-10    -9.738    -9.884    -0.146     (0)  
   CaCO3           1.380e-11   1.380e-11   -10.860   -10.860     0.000     (0)  
Ca            2.000e-03
   Ca(Citrate)-    1.604e-03   8.076e-04    -2.795    -3.093    -0.298     (0)  
   CaH(Citrate)    1.960e-04   1.960e-04    -3.708    -3.708     0.000     (0)  
   Ca+2            1.518e-04   4.343e-05    -3.819    -4.362    -0.543     (0)  
   Ca(Formate)+    2.771e-05   1.395e-05    -4.557    -4.855    -0.298     (0)  
   Ca(Acetate)+    1.071e-05   5.390e-06    -4.970    -5.268    -0.298     (0)  
   Ca(Propionate)+   5.907e-06   2.974e-06    -5.229    -5.527    -0.298     (0)  
   CaH2(Citrate)+   3.821e-06   1.924e-06    -5.418    -5.716    -0.298     (0)  
   CaHCO3+         4.703e-08   3.419e-08    -7.328    -7.466    -0.139     (0)  
   CaCO3           1.380e-11   1.380e-11   -10.860   -10.860     0.000     (0)  
   CaOH+           1.202e-12   8.736e-13   -11.920   -12.059    -0.139     (0)  
Cguaiacyl     1.700e-02
   H(Cguaiacyl)-   1.698e-02   1.242e-02    -1.770    -1.906    -0.136     (0)  
   H2(Cguaiacyl)   1.798e-05   1.945e-05    -4.745    -4.711     0.034     (0)  
   Cguaiacyl-2     6.957e-06   1.990e-06    -5.158    -5.701    -0.543     (0)  
Citrate       1.700e-02
   K(Citrate)-2    8.987e-03   5.775e-04    -2.046    -3.238    -1.192     (0)  
   Citrate-3       4.189e-03   2.508e-04    -2.378    -3.601    -1.223     (0)  
   Ca(Citrate)-    1.604e-03   8.076e-04    -2.795    -3.093    -0.298     (0)  
   Na(Citrate)-2   1.463e-03   9.400e-05    -2.835    -4.027    -1.192     (0)  
   NaH(Citrate)-   4.855e-04   2.444e-04    -3.314    -3.612    -0.298     (0)  
   CaH(Citrate)    1.960e-04   1.960e-04    -3.708    -3.708     0.000     (0)  
   H(Citrate)-2    5.205e-05   3.345e-06    -4.284    -5.476    -1.192     (0)  
   Na2(Citrate)-   1.927e-05   9.703e-06    -4.715    -5.013    -0.298     (0)  
   CaH2(Citrate)+   3.821e-06   1.924e-06    -5.418    -5.716    -0.298     (0)  
   H2(Citrate)-    2.802e-09   1.411e-09    -8.553    -8.851    -0.298     (0)  
   H3(Citrate)     6.087e-13   6.087e-13   -12.216   -12.216     0.000     (0)  
Cl            1.062e-01
   Cl-             1.062e-01   7.765e-02    -0.974    -1.110    -0.136     (0)  
Eugenol       1.700e-02
   H(Eugenol)      1.700e-02   1.839e-02    -1.770    -1.735     0.034     (0)  
   Eugenol-        1.801e-07   1.317e-07    -6.745    -6.880    -0.136     (0)  
Formate       1.700e-02
   Formate-        1.632e-02   1.193e-02    -1.787    -1.923    -0.136     (0)  
   H(Formate)      6.558e-04   6.558e-04    -3.183    -3.183     0.000     (0)  
   Ca(Formate)+    2.771e-05   1.395e-05    -4.557    -4.855    -0.298     (0)  
H(0)          1.812e-13
   H2              9.062e-14   9.803e-14   -13.043   -13.009     0.034     (0)  
Hydroquinone   1.700e-02
   H(Hydroquinone)-   1.700e-02   1.243e-02    -1.770    -1.906    -0.136     (0)  
   H2(Hydroquinone)   4.030e-06   4.360e-06    -5.395    -5.361     0.034     (0)  
   Hydroquinone-2   6.208e-07   1.776e-07    -6.207    -6.751    -0.543     (0)  
K             2.600e-01
   K+              2.501e-01   1.829e-01    -0.602    -0.738    -0.136     (0)  
   K(Citrate)-2    8.987e-03   5.775e-04    -2.046    -3.238    -1.192     (0)  
   K(Acetate)      9.560e-04   9.560e-04    -3.020    -3.020     0.000     (0)  
Lactate       1.700e-02
   Lactate-        1.610e-02   1.178e-02    -1.793    -1.929    -0.136     (0)  
   H(Lactate)      8.953e-04   9.685e-04    -3.048    -3.014     0.034     (0)  
Na            5.000e-02
   Na+             4.782e-02   3.498e-02    -1.320    -1.456    -0.136     (0)  
   Na(Citrate)-2   1.463e-03   9.400e-05    -2.835    -4.027    -1.192     (0)  
   NaH(Citrate)-   4.855e-04   2.444e-04    -3.314    -3.612    -0.298     (0)  
   Na(Acetate)     1.895e-04   1.895e-04    -3.722    -3.722     0.000     (0)  
   Na2(Citrate)-   1.927e-05   9.703e-06    -4.715    -5.013    -0.298     (0)  
   NaHCO3          8.315e-07   8.315e-07    -6.080    -6.080     0.000     (0)  
   NaCO3-          1.829e-10   1.306e-10    -9.738    -9.884    -0.146     (0)  
O(0)          0.000e+00
   O2              0.000e+00   0.000e+00   -66.321   -66.287     0.034     (0)  
Oxalate       1.700e-02
   Oxalate-2       1.700e-02   4.863e-03    -1.770    -2.313    -0.543     (0)  
   H(Oxalate)-     1.896e-06   1.387e-06    -5.722    -5.858    -0.136     (0)  
   H2(Oxalate)     1.104e-08   1.194e-08    -7.957    -7.923     0.034     (0)  
Propionate    1.700e-02
   Propionate-     1.103e-02   8.066e-03    -1.957    -2.093    -0.136     (0)  
   H(Propionate)   5.966e-03   5.966e-03    -2.224    -2.224     0.000     (0)  
   Ca(Propionate)+   5.907e-06   2.974e-06    -5.229    -5.527    -0.298     (0)  
Valspice      1.700e-02
   H(Valspice)     1.700e-02   1.839e-02    -1.770    -1.735     0.034     (0)  
   Valspice-       1.366e-07   9.990e-08    -6.865    -7.000    -0.136     (0)  

------------------------------Saturation indices-------------------------------

  Phase               SI** log IAP   log K(298 K,   1 atm)

  Aragonite        -5.76    -14.06   -8.30  CaCO3
  Calcite          -5.58    -14.06   -8.48  CaCO3
  CH4(g)          -18.08    -59.13  -41.05  CH4
  CO2(g)           -1.56    -19.70  -18.15  CO2
  Halite           -4.17     -2.57    1.60  NaCl
  Lime            -27.06      5.64   32.70  CaO
  Natron          -11.34    -12.66   -1.31  Na2CO3:10H2O
  O2(g)           -63.38     19.71   83.09  O2
  Portlandite     -17.17      5.64   22.80  Ca(OH)2
  Thermonatrite   -13.25    -12.61    0.64  Na2CO3:H2O

**For a gas, SI = log10(fugacity). Fugacity = pressure * phi / 1 atm.
  For ideal gases, phi = 1.

Reaction step 7.

Using solution 1.	
Using reaction 1.	

Reaction 1.	

	  1.400e+01 moles of the following reaction have been added:

	                 Relative
	Reactant            moles

	HCl                  0.00010

	                 Relative
	Element             moles
	Cl                   0.00010
	H                    0.00010

-----------------------------Solution composition------------------------------

	Elements           Molality       Moles

	Acetate           1.700e-02   8.160e-04
	Aguaiacyl         1.700e-02   8.160e-04
	Bguaiacyl         1.700e-02   8.160e-04
	C                 1.000e-03   4.800e-05
	Ca                2.000e-03   9.600e-05
	Cguaiacyl         1.700e-02   8.160e-04
	Citrate           1.700e-02   8.160e-04
	Cl                1.103e-01   5.296e-03
	Eugenol           1.700e-02   8.160e-04
	Formate           1.700e-02   8.160e-04
	Hydroquinone      1.700e-02   8.160e-04
	K                 2.600e-01   1.248e-02
	Lactate           1.700e-02   8.160e-04
	Na                5.000e-02   2.400e-03
	Oxalate           1.700e-02   8.160e-04
	Propionate        1.700e-02   8.160e-04
	Valspice          1.700e-02   8.160e-04

----------------------------Description of solution----------------------------

                                       pH  =   4.892      Charge balance
                                       pe  =   0.158      Adjusted to redox equilibrium
                        Activity of water  =   0.990
                           Ionic strength  =   3.406e-01
                       Mass of water (kg)  =   4.800e-02
                 Total alkalinity (eq/kg)  =   8.466e-02
                       Total CO2 (mol/kg)  =   1.000e-03
                         Temperature (°C)  =  25.00
                  Electrical balance (eq)  =  -5.601e-14
 Percent error, 100*(Cat-|An|)/(Cat+|An|)  =  -0.00
                               Iterations  =   9
                                  Total H  = 5.334480e+00
                                  Total O  = 2.664472e+00

----------------------------Distribution of species----------------------------

                                               Log       Log       Log    mole V
   Species          Molality    Activity  Molality  Activity     Gamma   cm³/mol

   H+              1.754e-05   1.283e-05    -4.756    -4.892    -0.136      0.00
   OH-             1.171e-09   7.768e-10    -8.932    -9.110    -0.178     (0)  
   H2O             5.551e+01   9.896e-01     1.744    -0.005     0.000     18.07
Acetate       1.700e-02
   Acetate-        1.037e-02   7.585e-03    -1.984    -2.120    -0.136     (0)  
   H(Acetate)      5.560e-03   5.560e-03    -2.255    -2.255     0.000     (0)  
   K(Acetate)      8.850e-04   8.850e-04    -3.053    -3.053     0.000     (0)  
   Na(Acetate)     1.749e-04   1.749e-04    -3.757    -3.757     0.000     (0)  
   Ca(Acetate)+    9.692e-06   4.884e-06    -5.014    -5.311    -0.298     (0)  
Aguaiacyl     1.700e-02
   H(Aguaiacyl)-   1.349e-02   9.865e-03    -1.870    -2.006    -0.136     (0)  
   H2(Aguaiacyl)   3.149e-03   3.406e-03    -2.502    -2.468     0.034     (0)  
   Aguaiacyl-2     3.625e-04   1.037e-04    -3.441    -3.984    -0.543     (0)  
Bguaiacyl     1.700e-02
   H(Bguaiacyl)-   1.407e-02   1.029e-02    -1.852    -1.988    -0.136     (0)  
   Bguaiacyl-2     1.939e-03   5.550e-04    -2.712    -3.256    -0.543     (0)  
   H2(Bguaiacyl)   9.919e-04   1.073e-03    -3.004    -2.969     0.034     (0)  
C(4)          1.000e-03
   H2CO3           9.531e-04   9.531e-04    -3.021    -3.021     0.000     (0)  
   HCO3-           4.626e-05   3.304e-05    -4.335    -4.481    -0.146     (0)  
   NaHCO3          6.484e-07   6.484e-07    -6.188    -6.188     0.000     (0)  
   CaHCO3+         3.599e-08   2.617e-08    -7.444    -7.582    -0.138     (0)  
   CO3-2           4.219e-10   1.207e-10    -9.375    -9.918    -0.543     (0)  
   NaCO3-          1.099e-10   7.847e-11    -9.959   -10.105    -0.146     (0)  
   CaCO3           8.141e-12   8.141e-12   -11.089   -11.089     0.000     (0)  
Ca            2.000e-03
   Ca(Citrate)-    1.556e-03   7.842e-04    -2.808    -3.106    -0.298     (0)  
   CaH(Citrate)    2.469e-04   2.469e-04    -3.607    -3.607     0.000     (0)  
   Ca+2            1.487e-04   4.254e-05    -3.828    -4.371    -0.543     (0)  
   Ca(Formate)+    2.681e-05   1.351e-05    -4.572    -4.869    -0.298     (0)  
   Ca(Acetate)+    9.692e-06   4.884e-06    -5.014    -5.311    -0.298     (0)  
   CaH2(Citrate)+   6.243e-06   3.146e-06    -5.205    -5.502    -0.298     (0)  
   Ca(Propionate)+   5.235e-06   2.638e-06    -5.281    -5.579    -0.298     (0)  
   CaHCO3+         3.599e-08   2.617e-08    -7.444    -7.582    -0.138     (0)  
   CaCO3           8.141e-12   8.141e-12   -11.089   -11.089     0.000     (0)  
   CaOH+           9.069e-13   6.594e-13   -12.042   -12.181    -0.138     (0)  
Cguaiacyl     1.700e-02
   H(Cguaiacyl)-   1.697e-02   1.241e-02    -1.770    -1.906    -0.136     (0)  
   H2(Cguaiacyl)   2.333e-05   2.524e-05    -4.632    -4.598     0.034     (0)  
   Cguaiacyl-2     5.359e-06   1.534e-06    -5.271    -5.814    -0.543     (0)  
Citrate       1.700e-02
   K(Citrate)-2    8.887e-03   5.730e-04    -2.051    -3.242    -1.191     (0)  
   Citrate-3       4.152e-03   2.487e-04    -2.382    -3.604    -1.223     (0)  
   Ca(Citrate)-    1.556e-03   7.842e-04    -2.808    -3.106    -0.298     (0)  
   Na(Citrate)-2   1.443e-03   9.300e-05    -2.841    -4.032    -1.191     (0)  
   NaH(Citrate)-   6.227e-04   3.138e-04    -3.206    -3.503    -0.298     (0)  
   CaH(Citrate)    2.469e-04   2.469e-04    -3.607    -3.607     0.000     (0)  
   H(Citrate)-2    6.675e-05   4.303e-06    -4.176    -5.366    -1.191     (0)  
   Na2(Citrate)-   1.901e-05   9.580e-06    -4.721    -5.019    -0.298     (0)  
   CaH2(Citrate)+   6.243e-06   3.146e-06    -5.205    -5.502    -0.298     (0)  
   H2(Citrate)-    4.673e-09   2.355e-09    -8.330    -8.628    -0.298     (0)  
   H3(Citrate)     1.318e-12   1.318e-12   -11.880   -11.880     0.000     (0)  
Cl            1.103e-01
   Cl-             1.103e-01   8.070e-02    -0.957    -1.093    -0.136     (0)  
Eugenol       1.700e-02
   H(Eugenol)      1.700e-02   1.839e-02    -1.770    -1.735     0.034     (0)  
   Eugenol-        1.387e-07   1.015e-07    -6.858    -6.994    -0.136     (0)  
Formate       1.700e-02
   Formate-        1.613e-02   1.180e-02    -1.792    -1.928    -0.136     (0)  
   H(Formate)      8.414e-04   8.414e-04    -3.075    -3.075     0.000     (0)  
   Ca(Formate)+    2.681e-05   1.351e-05    -4.572    -4.869    -0.298     (0)  
H(0)          1.042e-13
   H2              5.212e-14   5.638e-14   -13.283   -13.249     0.034     (0)  
Hydroquinone   1.700e-02
   H(Hydroquinone)-   1.699e-02   1.243e-02    -1.770    -1.906    -0.136     (0)  
   H2(Hydroquinone)   5.230e-06   5.657e-06    -5.281    -5.247     0.034     (0)  
   Hydroquinone-2   4.783e-07   1.369e-07    -6.320    -6.864    -0.543     (0)  
K             2.600e-01
   K+              2.502e-01   1.830e-01    -0.602    -0.738    -0.136     (0)  
   K(Citrate)-2    8.887e-03   5.730e-04    -2.051    -3.242    -1.191     (0)  
   K(Acetate)      8.850e-04   8.850e-04    -3.053    -3.053     0.000     (0)  
Lactate       1.700e-02
   Lactate-        1.586e-02   1.160e-02    -1.800    -1.936    -0.136     (0)  
   H(Lactate)      1.144e-03   1.237e-03    -2.942    -2.908     0.034     (0)  
Na            5.000e-02
   Na+             4.772e-02   3.490e-02    -1.321    -1.457    -0.136     (0)  
   Na(Citrate)-2   1.443e-03   9.300e-05    -2.841    -4.032    -1.191     (0)  
   NaH(Citrate)-   6.227e-04   3.138e-04    -3.206    -3.503    -0.298     (0)  
   Na(Acetate)     1.749e-04   1.749e-04    -3.757    -3.757     0.000     (0)  
   Na2(Citrate)-   1.901e-05   9.580e-06    -4.721    -5.019    -0.298     (0)  
   NaHCO3          6.484e-07   6.484e-07    -6.188    -6.188     0.000     (0)  
   NaCO3-          1.099e-10   7.847e-11    -9.959   -10.105    -0.146     (0)  
O(0)          0.000e+00
   O2              0.000e+00   0.000e+00   -65.840   -65.806     0.034     (0)  
Oxalate       1.700e-02
   Oxalate-2       1.700e-02   4.864e-03    -1.770    -2.313    -0.543     (0)  
   H(Oxalate)-     2.460e-06   1.799e-06    -5.609    -5.745    -0.136     (0)  
   H2(Oxalate)     1.859e-08   2.010e-08    -7.731    -7.697     0.034     (0)  
Propionate    1.700e-02
   Propionate-     9.986e-03   7.303e-03    -2.001    -2.136    -0.136     (0)  
   H(Propionate)   7.009e-03   7.009e-03    -2.154    -2.154     0.000     (0)  
   Ca(Propionate)+   5.235e-06   2.638e-06    -5.281    -5.579    -0.298     (0)  
Valspice      1.700e-02
   H(Valspice)     1.700e-02   1.839e-02    -1.770    -1.735     0.034     (0)  
   Valspice-       1.052e-07   7.698e-08    -6.978    -7.114    -0.136     (0)  

------------------------------Saturation indices-------------------------------

  Phase               SI** log IAP   log K(298 K,   1 atm)

  Aragonite        -5.99    -14.29   -8.30  CaCO3
  Calcite          -5.81    -14.29   -8.48  CaCO3
  CH4(g)          -19.04    -60.08  -41.05  CH4
  CO2(g)           -1.55    -19.70  -18.15  CO2
  Halite           -4.15     -2.55    1.60  NaCl
  Lime            -27.29      5.41   32.70  CaO
  Natron          -11.57    -12.88   -1.31  Na2CO3:10H2O
  O2(g)           -62.90     20.19   83.09  O2
  Portlandite     -17.40      5.40   22.80  Ca(OH)2
  Thermonatrite   -13.47    -12.84    0.64  Na2CO3:H2O

**For a gas, SI = log10(fugacity). Fugacity = pressure * phi / 1 atm.
  For ideal gases, phi = 1.

Reaction step 8.

Using solution 1.	
Using reaction 1.	

Reaction 1.	

	  1.600e+01 moles of the following reaction have been added:

	                 Relative
	Reactant            moles

	HCl                  0.00010

	                 Relative
	Element             moles
	Cl                   0.00010
	H                    0.00010

-----------------------------Solution composition------------------------------

	Elements           Molality       Moles

	Acetate           1.700e-02   8.160e-04
	Aguaiacyl         1.700e-02   8.160e-04
	Bguaiacyl         1.700e-02   8.160e-04
	C                 1.000e-03   4.800e-05
	Ca                2.000e-03   9.600e-05
	Cguaiacyl         1.700e-02   8.160e-04
	Citrate           1.700e-02   8.160e-04
	Cl                1.145e-01   5.496e-03
	Eugenol           1.700e-02   8.160e-04
	Formate           1.700e-02   8.160e-04
	Hydroquinone      1.700e-02   8.160e-04
	K                 2.600e-01   1.248e-02
	Lactate           1.700e-02   8.160e-04
	Na                5.000e-02   2.400e-03
	Oxalate           1.700e-02   8.160e-04
	Propionate        1.700e-02   8.160e-04
	Valspice          1.700e-02   8.160e-04

----------------------------Description of solution----------------------------

                                       pH  =   4.787      Charge balance
                                       pe  =   0.168      Adjusted to redox equilibrium
                        Activity of water  =   0.989
                           Ionic strength  =   3.399e-01
                       Mass of water (kg)  =   4.800e-02
                 Total alkalinity (eq/kg)  =   8.049e-02
                       Total CO2 (mol/kg)  =   1.000e-03
                         Temperature (°C)  =  25.00
                  Electrical balance (eq)  =  -2.468e-12
 Percent error, 100*(Cat-|An|)/(Cat+|An|)  =  -0.00
                               Iterations  =  10
                                  Total H  = 5.334680e+00
[...]
  CO2(g)           -1.53    -19.68  -18.15  CO2
  Halite           -4.05     -2.45    1.60  NaCl
  Lime            -28.83      3.87   32.70  CaO
  Natron          -12.99    -14.30   -1.31  Na2CO3:10H2O
  O2(g)           -61.72     21.37   83.09  O2
  Portlandite     -18.94      3.87   22.80  Ca(OH)2
  Thermonatrite   -14.89    -14.25    0.64  Na2CO3:H2O

**For a gas, SI = log10(fugacity). Fugacity = pressure * phi / 1 atm.
  For ideal gases, phi = 1.

Reaction step 16.

Using solution 1.	
Using reaction 1.	

Reaction 1.	

	  3.200e+01 moles of the following reaction have been added:

	                 Relative
	Reactant            moles

	HCl                  0.00010

	                 Relative
	Element             moles
	Cl                   0.00010
	H                    0.00010

-----------------------------Solution composition------------------------------

	Elements           Molality       Moles

	Acetate           1.700e-02   8.160e-04
	Aguaiacyl         1.700e-02   8.160e-04
	Bguaiacyl         1.700e-02   8.160e-04
	C                 1.000e-03   4.800e-05
	Ca                2.000e-03   9.600e-05
	Cguaiacyl         1.700e-02   8.160e-04
	Citrate           1.700e-02   8.160e-04
	Cl                1.478e-01   7.096e-03
	Eugenol           1.700e-02   8.160e-04
	Formate           1.700e-02   8.160e-04
	Hydroquinone      1.700e-02   8.160e-04
	K                 2.600e-01   1.248e-02
	Lactate           1.700e-02   8.160e-04
	Na                5.000e-02   2.400e-03
	Oxalate           1.700e-02   8.160e-04
	Propionate        1.700e-02   8.160e-04
	Valspice          1.700e-02   8.160e-04

----------------------------Description of solution----------------------------

                                       pH  =   4.114      Charge balance
                                       pe  =   1.338      Adjusted to redox equilibrium
                        Activity of water  =   0.989
                           Ionic strength  =   3.351e-01
                       Mass of water (kg)  =   4.800e-02
                 Total alkalinity (eq/kg)  =   4.716e-02
                       Total CO2 (mol/kg)  =   1.000e-03
                         Temperature (°C)  =  25.00
                  Electrical balance (eq)  =  -1.881e-17
 Percent error, 100*(Cat-|An|)/(Cat+|An|)  =  -0.00
                               Iterations  =  11
                                  Total H  = 5.336280e+00
                                  Total O  = 2.664472e+00

----------------------------Distribution of species----------------------------

                                               Log       Log       Log    mole V
   Species          Molality    Activity  Molality  Activity     Gamma   cm³/mol

   H+              1.051e-04   7.692e-05    -3.978    -4.114    -0.136      0.00
   OH-             1.947e-10   1.295e-10    -9.711    -9.888    -0.177     (0)  
   H2O             5.551e+01   9.889e-01     1.744    -0.005     0.000     18.07
Acetate       1.700e-02
   H(Acetate)      1.266e-02   1.266e-02    -1.898    -1.898     0.000     (0)  
   Acetate-        3.936e-03   2.880e-03    -2.405    -2.541    -0.136     (0)  
   K(Acetate)      3.390e-04   3.390e-04    -3.470    -3.470     0.000     (0)  
   Na(Acetate)     6.379e-05   6.379e-05    -4.195    -4.195     0.000     (0)  
   Ca(Acetate)+    2.549e-06   1.292e-06    -5.594    -5.889    -0.295     (0)  
Aguaiacyl     1.700e-02
   H2(Aguaiacyl)   9.905e-03   1.070e-02    -2.004    -1.971     0.034     (0)  
   H(Aguaiacyl)-   7.064e-03   5.168e-03    -2.151    -2.287    -0.136     (0)  
   Aguaiacyl-2     3.164e-05   9.064e-06    -4.500    -5.043    -0.543     (0)  
Bguaiacyl     1.700e-02
   H(Bguaiacyl)-   1.175e-02   8.599e-03    -1.930    -2.066    -0.136     (0)  
   H2(Bguaiacyl)   4.977e-03   5.376e-03    -2.303    -2.270     0.034     (0)  
   Bguaiacyl-2     2.700e-04   7.734e-05    -3.569    -4.112    -0.543     (0)  
C(4)          1.000e-03
   H2CO3           9.919e-04   9.919e-04    -3.004    -3.004     0.000     (0)  
   HCO3-           8.019e-06   5.734e-06    -5.096    -5.242    -0.146     (0)  
   NaHCO3          1.081e-07   1.081e-07    -6.966    -6.966     0.000     (0)  
   CaHCO3+         4.347e-09   3.164e-09    -8.362    -8.500    -0.138     (0)  
   CO3-2           1.220e-11   3.495e-12   -10.914   -11.457    -0.543     (0)  
   NaCO3-          3.051e-12   2.182e-12   -11.516   -11.661    -0.146     (0)  
   CaCO3           1.641e-13   1.641e-13   -12.785   -12.785     0.000     (0)  
Ca            2.000e-03
   Ca(Citrate)-    8.938e-04   4.529e-04    -3.049    -3.344    -0.295     (0)  
   CaH(Citrate)    8.552e-04   8.552e-04    -3.068    -3.068     0.000     (0)  
   CaH2(Citrate)+   1.289e-04   6.532e-05    -3.890    -4.185    -0.295     (0)  
   Ca+2            1.034e-04   2.964e-05    -3.985    -4.528    -0.543     (0)  
   Ca(Formate)+    1.490e-05   7.550e-06    -4.827    -5.122    -0.295     (0)  
   Ca(Acetate)+    2.549e-06   1.292e-06    -5.594    -5.889    -0.295     (0)  
   Ca(Propionate)+   1.185e-06   6.006e-07    -5.926    -6.221    -0.295     (0)  
   CaHCO3+         4.347e-09   3.164e-09    -8.362    -8.500    -0.138     (0)  
   CaCO3           1.641e-13   1.641e-13   -12.785   -12.785     0.000     (0)  
   CaOH+           1.052e-13   7.655e-14   -12.978   -13.116    -0.138     (0)  
Cguaiacyl     1.700e-02
   H(Cguaiacyl)-   1.686e-02   1.233e-02    -1.773    -1.909    -0.136     (0)  
   H2(Cguaiacyl)   1.392e-04   1.504e-04    -3.856    -3.823     0.034     (0)  
   Cguaiacyl-2     8.872e-07   2.542e-07    -6.052    -6.595    -0.543     (0)  
Citrate       1.700e-02
   K(Citrate)-2    7.269e-03   4.792e-04    -2.139    -3.319    -1.181     (0)  
   Citrate-3       3.433e-03   2.062e-04    -2.464    -3.686    -1.221     (0)  
   NaH(Citrate)-   2.957e-03   1.498e-03    -2.529    -2.824    -0.295     (0)  
   Na(Citrate)-2   1.123e-03   7.406e-05    -2.949    -4.130    -1.181     (0)  
   Ca(Citrate)-    8.938e-04   4.529e-04    -3.049    -3.344    -0.295     (0)  
   CaH(Citrate)    8.552e-04   8.552e-04    -3.068    -3.068     0.000     (0)  
   H(Citrate)-2    3.245e-04   2.139e-05    -3.489    -4.670    -1.181     (0)  
   CaH2(Citrate)+   1.289e-04   6.532e-05    -3.890    -4.185    -0.295     (0)  
   Na2(Citrate)-   1.446e-05   7.328e-06    -4.840    -5.135    -0.295     (0)  
   H2(Citrate)-    1.385e-07   7.019e-08    -6.859    -7.154    -0.295     (0)  
   H3(Citrate)     2.357e-10   2.357e-10    -9.628    -9.628     0.000     (0)  
Cl            1.478e-01
   Cl-             1.478e-01   1.082e-01    -0.830    -0.966    -0.136     (0)  
Eugenol       1.700e-02
   H(Eugenol)      1.700e-02   1.836e-02    -1.770    -1.736     0.034     (0)  
   Eugenol-        2.310e-08   1.690e-08    -7.636    -7.772    -0.136     (0)  
Formate       1.700e-02
   Formate-        1.294e-02   9.465e-03    -1.888    -2.024    -0.136     (0)  
   H(Formate)      4.047e-03   4.047e-03    -2.393    -2.393     0.000     (0)  
   Ca(Formate)+    1.490e-05   7.550e-06    -4.827    -5.122    -0.295     (0)  
H(0)          1.638e-14
   H2              8.190e-15   8.847e-15   -14.087   -14.053     0.034     (0)  
Hydroquinone   1.700e-02
   H(Hydroquinone)-   1.697e-02   1.241e-02    -1.770    -1.906    -0.136     (0)  
   H2(Hydroquinone)   3.136e-05   3.388e-05    -4.504    -4.470     0.034     (0)  
   Hydroquinone-2   7.958e-08   2.280e-08    -7.099    -7.642    -0.543     (0)  
K             2.600e-01
   K+              2.524e-01   1.847e-01    -0.598    -0.734    -0.136     (0)  
   K(Citrate)-2    7.269e-03   4.792e-04    -2.139    -3.319    -1.181     (0)  
   K(Acetate)      3.390e-04   3.390e-04    -3.470    -3.470     0.000     (0)  
Lactate       1.700e-02
   Lactate-        1.186e-02   8.677e-03    -1.926    -2.062    -0.136     (0)  
   H(Lactate)      5.139e-03   5.552e-03    -2.289    -2.256     0.034     (0)  
Na            5.000e-02
   Na+             4.583e-02   3.353e-02    -1.339    -1.475    -0.136     (0)  
   NaH(Citrate)-   2.957e-03   1.498e-03    -2.529    -2.824    -0.295     (0)  
   Na(Citrate)-2   1.123e-03   7.406e-05    -2.949    -4.130    -1.181     (0)  
   Na(Acetate)     6.379e-05   6.379e-05    -4.195    -4.195     0.000     (0)  
   Na2(Citrate)-   1.446e-05   7.328e-06    -4.840    -5.135    -0.295     (0)  
   NaHCO3          1.081e-07   1.081e-07    -6.966    -6.966     0.000     (0)  
   NaCO3-          3.051e-12   2.182e-12   -11.516   -11.661    -0.146     (0)  
O(0)          0.000e+00
   O2              0.000e+00   0.000e+00   -64.232   -64.198     0.034     (0)  
Oxalate       1.700e-02
   Oxalate-2       1.698e-02   4.866e-03    -1.770    -2.313    -0.543     (0)  
   H(Oxalate)-     1.475e-05   1.079e-05    -4.831    -4.967    -0.136     (0)  
   H2(Oxalate)     6.694e-07   7.231e-07    -6.174    -6.141     0.034     (0)  
Propionate    1.700e-02
   H(Propionate)   1.374e-02   1.374e-02    -1.862    -1.862     0.000     (0)  
   Propionate-     3.263e-03   2.387e-03    -2.486    -2.622    -0.136     (0)  
   Ca(Propionate)+   1.185e-06   6.006e-07    -5.926    -6.221    -0.295     (0)  
Valspice      1.700e-02
   H(Valspice)     1.700e-02   1.836e-02    -1.770    -1.736     0.034     (0)  
   Valspice-       1.752e-08   1.282e-08    -7.756    -7.892    -0.136     (0)  

------------------------------Saturation indices-------------------------------

  Phase               SI** log IAP   log K(298 K,   1 atm)

  Aragonite        -7.68    -15.98   -8.30  CaCO3
  Calcite          -7.50    -15.98   -8.48  CaCO3
  CH4(g)          -22.24    -63.28  -41.05  CH4
  CO2(g)           -1.53    -19.68  -18.15  CO2
  Halite           -4.04     -2.44    1.60  NaCl
  Lime            -29.00      3.69   32.70  CaO
  Natron          -13.14    -14.45   -1.31  Na2CO3:10H2O
  O2(g)           -61.29     21.80   83.09  O2
  Portlandite     -19.11      3.69   22.80  Ca(OH)2
  Thermonatrite   -15.05    -14.41    0.64  Na2CO3:H2O

**For a gas, SI = log10(fugacity). Fugacity = pressure * phi / 1 atm.
  For ideal gases, phi = 1.

Reaction step 17.

Using solution 1.	
Using reaction 1.	

Reaction 1.	

	  3.400e+01 moles of the following reaction have been added:

	                 Relative
	Reactant            moles

	HCl                  0.00010

	                 Relative
	Element             moles
	Cl                   0.00010
	H                    0.00010

-----------------------------Solution composition------------------------------

	Elements           Molality       Moles

	Acetate           1.700e-02   8.160e-04
	Aguaiacyl         1.700e-02   8.160e-04
	Bguaiacyl         1.700e-02   8.160e-04
	C                 1.000e-03   4.800e-05
	Ca                2.000e-03   9.600e-05
	Cguaiacyl         1.700e-02   8.160e-04
	Citrate           1.700e-02   8.160e-04
	Cl                1.520e-01   7.296e-03
	Eugenol           1.700e-02   8.160e-04
	Formate           1.700e-02   8.160e-04
	Hydroquinone      1.700e-02   8.160e-04
	K                 2.600e-01   1.248e-02
	Lactate           1.700e-02   8.160e-04
	Na                5.000e-02   2.400e-03
	Oxalate           1.700e-02   8.160e-04
	Propionate        1.700e-02   8.160e-04
	Valspice          1.700e-02   8.160e-04

----------------------------Description of solution----------------------------

                                       pH  =   4.040      Charge balance
                                       pe  =   1.318      Adjusted to redox equilibrium
                        Activity of water  =   0.989
                           Ionic strength  =   3.344e-01
                       Mass of water (kg)  =   4.800e-02
                 Total alkalinity (eq/kg)  =   4.299e-02
                       Total CO2 (mol/kg)  =   1.000e-03
                         Temperature (°C)  =  25.00
                  Electrical balance (eq)  =  -9.321e-18
 Percent error, 100*(Cat-|An|)/(Cat+|An|)  =  -0.00
                               Iterations  =  11
                                  Total H  = 5.336480e+00
                                  Total O  = 2.664472e+00

----------------------------Distribution of species----------------------------

                                               Log       Log       Log    mole V
   Species          Molality    Activity  Molality  Activity     Gamma   cm³/mol

   H+              1.247e-04   9.125e-05    -3.904    -4.040    -0.136      0.00
   OH-             1.641e-10   1.091e-10    -9.785    -9.962    -0.177     (0)  
   H2O             5.551e+01   9.889e-01     1.744    -0.005     0.000     18.07
Acetate       1.700e-02
   H(Acetate)      1.319e-02   1.319e-02    -1.880    -1.880     0.000     (0)  
   Acetate-        3.456e-03   2.529e-03    -2.461    -2.597    -0.136     (0)  
   K(Acetate)      2.981e-04   2.981e-04    -3.526    -3.526     0.000     (0)  
   Na(Acetate)     5.561e-05   5.561e-05    -4.255    -4.255     0.000     (0)  
   Ca(Acetate)+    2.096e-06   1.063e-06    -5.679    -5.974    -0.295     (0)  
Aguaiacyl     1.700e-02
   H2(Aguaiacyl)   1.060e-02   1.145e-02    -1.975    -1.941     0.033     (0)  
   H(Aguaiacyl)-   6.373e-03   4.663e-03    -2.196    -2.331    -0.136     (0)  
   Aguaiacyl-2     2.405e-05   6.892e-06    -4.619    -5.162    -0.543     (0)  
Bguaiacyl     1.700e-02
   H(Bguaiacyl)-   1.117e-02   8.173e-03    -1.952    -2.088    -0.136     (0)  
   H2(Bguaiacyl)   5.613e-03   6.062e-03    -2.251    -2.217     0.033     (0)  
   Bguaiacyl-2     2.162e-04   6.196e-05    -3.665    -4.208    -0.543     (0)  
C(4)          1.000e-03
   H2CO3           9.931e-04   9.931e-04    -3.003    -3.003     0.000     (0)  
   HCO3-           6.766e-06   4.839e-06    -5.170    -5.315    -0.146     (0)  
   NaHCO3          9.057e-08   9.057e-08    -7.043    -7.043     0.000     (0)  
   CaHCO3+         3.437e-09   2.502e-09    -8.464    -8.602    -0.138     (0)  
   CO3-2           8.676e-12   2.486e-12   -11.062   -11.604    -0.543     (0)  
   NaCO3-          2.154e-12   1.541e-12   -11.667   -11.812    -0.146     (0)  
   CaCO3           1.094e-13   1.094e-13   -12.961   -12.961     0.000     (0)  
Ca            2.000e-03
   CaH(Citrate)    9.163e-04   9.163e-04    -3.038    -3.038     0.000     (0)  
   Ca(Citrate)-    8.067e-04   4.090e-04    -3.093    -3.388    -0.295     (0)  
   CaH2(Citrate)+   1.638e-04   8.304e-05    -3.786    -4.081    -0.295     (0)  
   Ca+2            9.691e-05   2.777e-05    -4.014    -4.556    -0.543     (0)  
   Ca(Formate)+    1.336e-05   6.774e-06    -4.874    -5.169    -0.295     (0)  
   Ca(Acetate)+    2.096e-06   1.063e-06    -5.679    -5.974    -0.295     (0)  
   Ca(Propionate)+   9.645e-07   4.891e-07    -6.016    -6.311    -0.295     (0)  
   CaHCO3+         3.437e-09   2.502e-09    -8.464    -8.602    -0.138     (0)  
   CaCO3           1.094e-13   1.094e-13   -12.961   -12.961     0.000     (0)  
   CaOH+           8.304e-14   6.046e-14   -13.081   -13.219    -0.138     (0)  
Cguaiacyl     1.700e-02
   H(Cguaiacyl)-   1.683e-02   1.232e-02    -1.774    -1.910    -0.136     (0)  
   H2(Cguaiacyl)   1.649e-04   1.781e-04    -3.783    -3.749     0.033     (0)  
   Cguaiacyl-2     7.465e-07   2.139e-07    -6.127    -6.670    -0.543     (0)  
Citrate       1.700e-02
   K(Citrate)-2    6.995e-03   4.625e-04    -2.155    -3.335    -1.180     (0)  
   NaH(Citrate)-   3.354e-03   1.701e-03    -2.474    -2.769    -0.295     (0)  
   Citrate-3       3.308e-03   1.987e-04    -2.480    -3.702    -1.221     (0)  
   Na(Citrate)-2   1.072e-03   7.086e-05    -2.970    -4.150    -1.180     (0)  
   CaH(Citrate)    9.163e-04   9.163e-04    -3.038    -3.038     0.000     (0)  
   Ca(Citrate)-    8.067e-04   4.090e-04    -3.093    -3.388    -0.295     (0)  
   H(Citrate)-2    3.700e-04   2.446e-05    -3.432    -4.612    -1.180     (0)  
   CaH2(Citrate)+   1.638e-04   8.304e-05    -3.786    -4.081    -0.295     (0)  
   Na2(Citrate)-   1.373e-05   6.961e-06    -4.862    -5.157    -0.295     (0)  
   H2(Citrate)-    1.878e-07   9.522e-08    -6.726    -7.021    -0.295     (0)  
   H3(Citrate)     3.793e-10   3.793e-10    -9.421    -9.421     0.000     (0)  
Cl            1.520e-01
   Cl-             1.520e-01   1.112e-01    -0.818    -0.954    -0.136     (0)  
Eugenol       1.700e-02
   H(Eugenol)      1.700e-02   1.836e-02    -1.770    -1.736     0.033     (0)  
   Eugenol-        1.947e-08   1.424e-08    -7.711    -7.846    -0.136     (0)  
Formate       1.700e-02
   Formate-        1.239e-02   9.064e-03    -1.907    -2.043    -0.136     (0)  
   H(Formate)      4.598e-03   4.598e-03    -2.337    -2.337     0.000     (0)  
   Ca(Formate)+    1.336e-05   6.774e-06    -4.874    -5.169    -0.295     (0)  
H(0)          2.524e-14
   H2              1.262e-14   1.363e-14   -13.899   -13.865     0.033     (0)  
Hydroquinone   1.700e-02
   H(Hydroquinone)-   1.696e-02   1.241e-02    -1.771    -1.906    -0.136     (0)  
   H2(Hydroquinone)   3.721e-05   4.018e-05    -4.429    -4.396     0.033     (0)  
   Hydroquinone-2   6.704e-08   1.921e-08    -7.174    -7.716    -0.543     (0)  
K             2.600e-01
   K+              2.527e-01   1.849e-01    -0.597    -0.733    -0.136     (0)  
   K(Citrate)-2    6.995e-03   4.625e-04    -2.155    -3.335    -1.180     (0)  
   K(Acetate)      2.981e-04   2.981e-04    -3.526    -3.526     0.000     (0)  
Lactate       1.700e-02
   Lactate-        1.123e-02   8.214e-03    -1.950    -2.085    -0.136     (0)  
   H(Lactate)      5.773e-03   6.235e-03    -2.239    -2.205     0.033     (0)  
Na            5.000e-02
   Na+             4.549e-02   3.328e-02    -1.342    -1.478    -0.136     (0)  
   NaH(Citrate)-   3.354e-03   1.701e-03    -2.474    -2.769    -0.295     (0)  
   Na(Citrate)-2   1.072e-03   7.086e-05    -2.970    -4.150    -1.180     (0)  
   Na(Acetate)     5.561e-05   5.561e-05    -4.255    -4.255     0.000     (0)  
   Na2(Citrate)-   1.373e-05   6.961e-06    -4.862    -5.157    -0.295     (0)  
   NaHCO3          9.057e-08   9.057e-08    -7.043    -7.043     0.000     (0)  
   NaCO3-          2.154e-12   1.541e-12   -11.667   -11.812    -0.146     (0)  
O(0)          0.000e+00
   O2              0.000e+00   0.000e+00   -64.607   -64.574     0.033     (0)  
Oxalate       1.700e-02
   Oxalate-2       1.698e-02   4.866e-03    -1.770    -2.313    -0.543     (0)  
   H(Oxalate)-     1.750e-05   1.281e-05    -4.757    -4.893    -0.136     (0)  
   H2(Oxalate)     9.424e-07   1.018e-06    -6.026    -5.992     0.033     (0)  
Propionate    1.700e-02
   H(Propionate)   1.416e-02   1.416e-02    -1.849    -1.849     0.000     (0)  
   Propionate-     2.835e-03   2.075e-03    -2.547    -2.683    -0.136     (0)  
   Ca(Propionate)+   9.645e-07   4.891e-07    -6.016    -6.311    -0.295     (0)  
Valspice      1.700e-02
   H(Valspice)     1.700e-02   1.836e-02    -1.770    -1.736     0.033     (0)  
   Valspice-       1.477e-08   1.081e-08    -7.831    -7.966    -0.136     (0)  

------------------------------Saturation indices-------------------------------

  Phase               SI** log IAP   log K(298 K,   1 atm)

  Aragonite        -7.86    -16.16   -8.30  CaCO3
  Calcite          -7.68    -16.16   -8.48  CaCO3
  CH4(g)          -21.49    -62.53  -41.05  CH4
  CO2(g)           -1.53    -19.68  -18.15  CO2
  Halite           -4.03     -2.43    1.60  NaCl
  Lime            -29.18      3.52   32.70  CaO
  Natron          -13.30    -14.61   -1.31  Na2CO3:10H2O
  O2(g)           -61.67     21.42   83.09  O2
  Portlandite     -19.29      3.51   22.80  Ca(OH)2
  Thermonatrite   -15.20    -14.56    0.64  Na2CO3:H2O

**For a gas, SI = log10(fugacity). Fugacity = pressure * phi / 1 atm.
  For ideal gases, phi = 1.

------------------
End of simulation.
------------------

------------------------------------
Reading input data for simulation 2.
------------------------------------

----------------------------------
End of Run after 0.044672 Seconds.
----------------------------------

